Coordinates from ORCA-job Furan-3-N2+-scan-d09-169-n800
 OpenBabel09191814033D

 10  9  0  0  0  0  0  0  0  0999 V2000
    8.7693    4.8325    4.1918 N   0  0  0  0  0  0  0  0  0  0  0  0
    9.6750    5.2591    4.6605 N   0  0  0  0  0  0  0  0  0  0  0  0
   -2.7763   -1.1811   -1.9569 C   0  0  0  0  0  0  0  0  0  0  0  0
   -3.9394   -0.4640   -1.8863 C   0  0  0  0  0  0  0  0  0  0  0  0
   -4.9529   -0.6724   -2.2049 H   0  0  0  0  0  0  0  0  0  0  0  0
   -3.5748    0.2196   -0.7238 C   0  0  0  0  0  0  0  0  0  0  0  0
   -4.2244    0.5527    0.0803 H   0  0  0  0  0  0  0  0  0  0  0  0
   -1.6711   -0.6503   -1.3254 C   0  0  0  0  0  0  0  0  0  0  0  0
   -0.5976   -0.7469   -1.4188 H   0  0  0  0  0  0  0  0  0  0  0  0
   -2.2219    0.1249   -0.3865 O   0  0  0  0  0  0  0  0  0  0  0  0
  1  2  3  0  0  0  0
  3  4  1  0  0  0  0
  3  8  1  0  0  0  0
  4  6  1  0  0  0  0
  5  4  1  0  0  0  0
  6 10  1  0  0  0  0
  6  7  1  0  0  0  0
  8 10  1  0  0  0  0
  9  8  1  0  0  0  0
M  RAD  4   3   3   4   2   6   2   8   2
M  END
