Coordinates from ORCA-job Furan-3-N2+-scan-d09-169-n800
 OpenBabel09191814033D

 10  9  0  0  0  0  0  0  0  0999 V2000
    6.3466    3.6475    2.9607 N   0  0  0  0  0  0  0  0  0  0  0  0
    7.2443    4.0805    3.4389 N   0  0  0  0  0  0  0  0  0  0  0  0
   -1.9822   -0.8356   -1.6258 C   0  0  0  0  0  0  0  0  0  0  0  0
   -3.2333   -0.2840   -1.6775 C   0  0  0  0  0  0  0  0  0  0  0  0
   -4.1693   -0.6221   -2.1037 H   0  0  0  0  0  0  0  0  0  0  0  0
   -3.0910    0.4216   -0.4803 C   0  0  0  0  0  0  0  0  0  0  0  0
   -3.8615    0.6482    0.2509 H   0  0  0  0  0  0  0  0  0  0  0  0
   -1.0336   -0.1701   -0.8774 C   0  0  0  0  0  0  0  0  0  0  0  0
    0.0469   -0.1179   -0.8552 H   0  0  0  0  0  0  0  0  0  0  0  0
   -1.7810    0.5060   -0.0005 O   0  0  0  0  0  0  0  0  0  0  0  0
  1  2  3  0  0  0  0
  3  8  1  0  0  0  0
  4  3  1  0  0  0  0
  4  6  1  0  0  0  0
  5  4  1  0  0  0  0
  6 10  1  0  0  0  0
  6  7  1  0  0  0  0
  8  9  1  0  0  0  0
  8 10  1  0  0  0  0
M  RAD  4   3   3   4   2   6   2   8   2
M  END
