Coordinates from ORCA-job Furan-3-N2+-scan-d09-169-n800
 OpenBabel09191814033D

 10  9  0  0  0  0  0  0  0  0999 V2000
    5.9229    3.4362    2.7464 N   0  0  0  0  0  0  0  0  0  0  0  0
    6.8160    3.8753    3.2277 N   0  0  0  0  0  0  0  0  0  0  0  0
   -1.8449   -0.7742   -1.5646 C   0  0  0  0  0  0  0  0  0  0  0  0
   -3.1084   -0.2540   -1.6375 C   0  0  0  0  0  0  0  0  0  0  0  0
   -4.0287   -0.6158   -2.0783 H   0  0  0  0  0  0  0  0  0  0  0  0
   -3.0033    0.4565   -0.4394 C   0  0  0  0  0  0  0  0  0  0  0  0
   -3.7910    0.6648    0.2788 H   0  0  0  0  0  0  0  0  0  0  0  0
   -0.9256   -0.0842   -0.8020 C   0  0  0  0  0  0  0  0  0  0  0  0
    0.1527   -0.0049   -0.7624 H   0  0  0  0  0  0  0  0  0  0  0  0
   -1.7038    0.5742    0.0615 O   0  0  0  0  0  0  0  0  0  0  0  0
  1  2  3  0  0  0  0
  3  8  1  0  0  0  0
  4  3  1  0  0  0  0
  4  6  1  0  0  0  0
  5  4  1  0  0  0  0
  6 10  1  0  0  0  0
  6  7  1  0  0  0  0
  8  9  1  0  0  0  0
  8 10  1  0  0  0  0
M  RAD  4   3   3   4   2   6   2   8   2
M  END
