Coordinates from ORCA-job Furan-3-N2+-scan-d09-169-n800
 OpenBabel09191814033D

 10  9  0  0  0  0  0  0  0  0999 V2000
    7.3196    4.1216    3.4577 N   0  0  0  0  0  0  0  0  0  0  0  0
    8.2206    4.5496    3.9343 N   0  0  0  0  0  0  0  0  0  0  0  0
   -2.3004   -0.9817   -1.7570 C   0  0  0  0  0  0  0  0  0  0  0  0
   -3.5230   -0.3671   -1.7572 C   0  0  0  0  0  0  0  0  0  0  0  0
   -4.4944   -0.6618   -2.1335 H   0  0  0  0  0  0  0  0  0  0  0  0
   -3.2874    0.3448   -0.5787 C   0  0  0  0  0  0  0  0  0  0  0  0
   -4.0093    0.6200    0.1848 H   0  0  0  0  0  0  0  0  0  0  0  0
   -1.2841   -0.3568   -1.0645 C   0  0  0  0  0  0  0  0  0  0  0  0
   -0.2026   -0.3620   -1.0930 H   0  0  0  0  0  0  0  0  0  0  0  0
   -1.9532    0.3674   -0.1629 O   0  0  0  0  0  0  0  0  0  0  0  0
  1  2  3  0  0  0  0
  3  8  1  0  0  0  0
  4  3  1  0  0  0  0
  4  6  1  0  0  0  0
  5  4  1  0  0  0  0
  6 10  1  0  0  0  0
  6  7  1  0  0  0  0
  8 10  1  0  0  0  0
  9  8  1  0  0  0  0
M  RAD  4   3   3   4   2   6   2   8   2
M  END
