Coordinates from ORCA-job Furan-3-N2+-scan-d09-169-n800
 OpenBabel09191814033D

 10  9  0  0  0  0  0  0  0  0999 V2000
    2.4547    1.0602    0.3066 N   0  0  0  0  0  0  0  0  0  0  0  0
    3.5536    1.1632    0.3590 N   0  0  0  0  0  0  0  0  0  0  0  0
   -0.4257    0.4609    0.2524 C   0  0  0  0  0  0  0  0  0  0  0  0
   -1.0379   -0.3468   -0.6705 C   0  0  0  0  0  0  0  0  0  0  0  0
   -0.9094   -1.3865   -0.9409 H   0  0  0  0  0  0  0  0  0  0  0  0
   -2.2400    0.3566   -0.6591 C   0  0  0  0  0  0  0  0  0  0  0  0
   -3.2408   -0.0252   -0.8326 H   0  0  0  0  0  0  0  0  0  0  0  0
   -0.9245    1.7285    0.4232 C   0  0  0  0  0  0  0  0  0  0  0  0
   -0.5604    2.6705    0.8075 H   0  0  0  0  0  0  0  0  0  0  0  0
   -2.1837    1.5927   -0.0154 O   0  0  0  0  0  0  0  0  0  0  0  0
  1  2  3  0  0  0  0
  3  8  1  0  0  0  0
  4  6  1  0  0  0  0
  4  3  1  0  0  0  0
  5  4  1  0  0  0  0
  6 10  1  0  0  0  0
  7  6  1  0  0  0  0
  8  9  1  0  0  0  0
 10  8  1  0  0  0  0
M  RAD  4   3   3   4   2   6   2   8   2
M  END
