Coordinates from ORCA-job Furan-3-N2+-scan-d09-169-n800
 OpenBabel09191814033D

 10  9  0  0  0  0  0  0  0  0999 V2000
    9.9005    5.3732    4.7365 N   0  0  0  0  0  0  0  0  0  0  0  0
   10.8017    5.7830    5.2283 N   0  0  0  0  0  0  0  0  0  0  0  0
   -3.1199   -1.3314   -2.0923 C   0  0  0  0  0  0  0  0  0  0  0  0
   -4.2499   -0.5670   -1.9874 C   0  0  0  0  0  0  0  0  0  0  0  0
   -5.2824   -0.7382   -2.2646 H   0  0  0  0  0  0  0  0  0  0  0  0
   -3.8141    0.1153   -0.8490 C   0  0  0  0  0  0  0  0  0  0  0  0
   -4.4186    0.4838   -0.0252 H   0  0  0  0  0  0  0  0  0  0  0  0
   -1.9710   -0.8373   -1.5106 C   0  0  0  0  0  0  0  0  0  0  0  0
   -0.9066   -0.9784   -1.6433 H   0  0  0  0  0  0  0  0  0  0  0  0
   -2.4538   -0.0290   -0.5623 O   0  0  0  0  0  0  0  0  0  0  0  0
  1  2  3  0  0  0  0
  3  4  1  0  0  0  0
  3  8  1  0  0  0  0
  4  6  1  0  0  0  0
  5  4  1  0  0  0  0
  6 10  1  0  0  0  0
  6  7  1  0  0  0  0
  8 10  1  0  0  0  0
  9  8  1  0  0  0  0
M  RAD  4   3   3   4   2   6   2   8   2
M  END
