Coordinates from ORCA-job Furan-3-N2+-scan-d09-169-n800
 OpenBabel09191814033D

 10  9  0  0  0  0  0  0  0  0999 V2000
    3.8586    2.4080    1.6807 N   0  0  0  0  0  0  0  0  0  0  0  0
    4.7441    2.8678    2.1563 N   0  0  0  0  0  0  0  0  0  0  0  0
   -1.1714   -0.4472   -1.2567 C   0  0  0  0  0  0  0  0  0  0  0  0
   -2.4742   -0.0785   -1.4538 C   0  0  0  0  0  0  0  0  0  0  0  0
   -3.2953   -0.5371   -1.9901 H   0  0  0  0  0  0  0  0  0  0  0  0
   -2.5758    0.6125   -0.2441 C   0  0  0  0  0  0  0  0  0  0  0  0
   -3.4509    0.7103    0.3917 H   0  0  0  0  0  0  0  0  0  0  0  0
   -0.4217    0.3300   -0.3975 C   0  0  0  0  0  0  0  0  0  0  0  0
    0.6297    0.5363   -0.2447 H   0  0  0  0  0  0  0  0  0  0  0  0
   -1.3570    0.8719    0.3883 O   0  0  0  0  0  0  0  0  0  0  0  0
  1  2  3  0  0  0  0
  3  8  1  0  0  0  0
  4  3  1  0  0  0  0
  4  6  1  0  0  0  0
  5  4  1  0  0  0  0
  6 10  1  0  0  0  0
  6  7  1  0  0  0  0
  8  9  1  0  0  0  0
  8 10  1  0  0  0  0
M  RAD  4   3   3   4   2   6   2   8   2
M  END
