Coordinates from ORCA-job Furan-3-N2+-scan-d09-169-n800
 OpenBabel09191814033D

 10  9  0  0  0  0  0  0  0  0999 V2000
    4.7410    2.8617    2.1671 N   0  0  0  0  0  0  0  0  0  0  0  0
    5.6237    3.3263    2.6436 N   0  0  0  0  0  0  0  0  0  0  0  0
   -1.4821   -0.6078   -1.4018 C   0  0  0  0  0  0  0  0  0  0  0  0
   -2.7671   -0.1540   -1.5242 C   0  0  0  0  0  0  0  0  0  0  0  0
   -3.6493   -0.5624   -2.0007 H   0  0  0  0  0  0  0  0  0  0  0  0
   -2.7457    0.5577   -0.3223 C   0  0  0  0  0  0  0  0  0  0  0  0
   -3.5706    0.7229    0.3646 H   0  0  0  0  0  0  0  0  0  0  0  0
   -0.6297    0.1267   -0.6038 C   0  0  0  0  0  0  0  0  0  0  0  0
    0.4407    0.2618   -0.5215 H   0  0  0  0  0  0  0  0  0  0  0  0
   -1.4749    0.7413    0.2291 O   0  0  0  0  0  0  0  0  0  0  0  0
  1  2  3  0  0  0  0
  3  8  1  0  0  0  0
  4  3  1  0  0  0  0
  4  6  1  0  0  0  0
  5  4  1  0  0  0  0
  6 10  1  0  0  0  0
  6  7  1  0  0  0  0
  8  9  1  0  0  0  0
  8 10  1  0  0  0  0
M  RAD  4   3   3   4   2   6   2   8   2
M  END
