Coordinates from ORCA-job Furan-3-N2+-scan-d09-169-n800
 OpenBabel09191814033D

 10  9  0  0  0  0  0  0  0  0999 V2000
    7.5579    4.2364    3.5796 N   0  0  0  0  0  0  0  0  0  0  0  0
    8.4597    4.6635    4.0555 N   0  0  0  0  0  0  0  0  0  0  0  0
   -2.3776   -1.0167   -1.7872 C   0  0  0  0  0  0  0  0  0  0  0  0
   -3.5935   -0.3892   -1.7759 C   0  0  0  0  0  0  0  0  0  0  0  0
   -4.5725   -0.6751   -2.1389 H   0  0  0  0  0  0  0  0  0  0  0  0
   -3.3357    0.3256   -0.6037 C   0  0  0  0  0  0  0  0  0  0  0  0
   -4.0451    0.6127    0.1669 H   0  0  0  0  0  0  0  0  0  0  0  0
   -1.3459   -0.4006   -1.1102 C   0  0  0  0  0  0  0  0  0  0  0  0
   -0.2649   -0.4180   -1.1520 H   0  0  0  0  0  0  0  0  0  0  0  0
   -1.9965    0.3353   -0.2040 O   0  0  0  0  0  0  0  0  0  0  0  0
  1  2  3  0  0  0  0
  3  4  1  0  0  0  0
  3  8  1  0  0  0  0
  4  6  1  0  0  0  0
  5  4  1  0  0  0  0
  6 10  1  0  0  0  0
  6  7  1  0  0  0  0
  8 10  1  0  0  0  0
  9  8  1  0  0  0  0
M  RAD  4   3   3   4   2   6   2   8   2
M  END
