Coordinates from ORCA-job Furan-3-N2+-scan-d09-169-n800
 OpenBabel09191814033D

 10  9  0  0  0  0  0  0  0  0999 V2000
    8.2782    4.5933    3.9443 N   0  0  0  0  0  0  0  0  0  0  0  0
    9.1809    5.0221    4.4168 N   0  0  0  0  0  0  0  0  0  0  0  0
   -2.6189   -1.1151   -1.8919 C   0  0  0  0  0  0  0  0  0  0  0  0
   -3.8010   -0.4279   -1.8420 C   0  0  0  0  0  0  0  0  0  0  0  0
   -4.8029   -0.6619   -2.1790 H   0  0  0  0  0  0  0  0  0  0  0  0
   -3.4752    0.2636   -0.6727 C   0  0  0  0  0  0  0  0  0  0  0  0
   -4.1476    0.5792    0.1197 H   0  0  0  0  0  0  0  0  0  0  0  0
   -1.5392   -0.5568   -1.2401 C   0  0  0  0  0  0  0  0  0  0  0  0
   -0.4621   -0.6257   -1.3141 H   0  0  0  0  0  0  0  0  0  0  0  0
   -2.1266    0.2032   -0.3110 O   0  0  0  0  0  0  0  0  0  0  0  0
  1  2  3  0  0  0  0
  3  4  1  0  0  0  0
  3  8  1  0  0  0  0
  4  6  1  0  0  0  0
  5  4  1  0  0  0  0
  6 10  1  0  0  0  0
  6  7  1  0  0  0  0
  8 10  1  0  0  0  0
  9  8  1  0  0  0  0
M  RAD  4   3   3   4   2   6   2   8   2
M  END
