Coordinates from ORCA-job Furan-3-N2+-scan-d09-169-n800
 OpenBabel09191814033D

 10  9  0  0  0  0  0  0  0  0999 V2000
    3.5292    2.2359    1.4950 N   0  0  0  0  0  0  0  0  0  0  0  0
    4.4166    2.6926    1.9700 N   0  0  0  0  0  0  0  0  0  0  0  0
   -1.0538   -0.3836   -1.1985 C   0  0  0  0  0  0  0  0  0  0  0  0
   -2.3610   -0.0501   -1.4269 C   0  0  0  0  0  0  0  0  0  0  0  0
   -3.1550   -0.5285   -1.9862 H   0  0  0  0  0  0  0  0  0  0  0  0
   -2.5125    0.6306   -0.2167 C   0  0  0  0  0  0  0  0  0  0  0  0
   -3.4057    0.7004    0.3971 H   0  0  0  0  0  0  0  0  0  0  0  0
   -0.3475    0.4100   -0.3169 C   0  0  0  0  0  0  0  0  0  0  0  0
    0.6933    0.6461   -0.1341 H   0  0  0  0  0  0  0  0  0  0  0  0
   -1.3178    0.9206    0.4475 O   0  0  0  0  0  0  0  0  0  0  0  0
  1  2  3  0  0  0  0
  3  8  1  0  0  0  0
  4  3  1  0  0  0  0
  4  6  1  0  0  0  0
  5  4  1  0  0  0  0
  6  7  1  0  0  0  0
  6 10  1  0  0  0  0
  8  9  1  0  0  0  0
  8 10  1  0  0  0  0
M  RAD  4   3   3   4   2   6   2   8   2
M  END
