Coordinates from ORCA-job Furan-3-N2+-scan-d09-169-n800
 OpenBabel09191814033D

 10  9  0  0  0  0  0  0  0  0999 V2000
    6.9333    3.9337    3.2598 N   0  0  0  0  0  0  0  0  0  0  0  0
    7.8331    4.3634    3.7370 N   0  0  0  0  0  0  0  0  0  0  0  0
   -2.1735   -0.9227   -1.7059 C   0  0  0  0  0  0  0  0  0  0  0  0
   -3.4082   -0.3334   -1.7266 C   0  0  0  0  0  0  0  0  0  0  0  0
   -4.3658   -0.6452   -2.1238 H   0  0  0  0  0  0  0  0  0  0  0  0
   -3.2102    0.3751   -0.5391 C   0  0  0  0  0  0  0  0  0  0  0  0
   -3.9522    0.6310    0.2116 H   0  0  0  0  0  0  0  0  0  0  0  0
   -1.1835   -0.2830   -0.9895 C   0  0  0  0  0  0  0  0  0  0  0  0
   -0.1018   -0.2664   -0.9969 H   0  0  0  0  0  0  0  0  0  0  0  0
   -1.8852    0.4215   -0.0967 O   0  0  0  0  0  0  0  0  0  0  0  0
  1  2  3  0  0  0  0
  3  8  1  0  0  0  0
  4  3  1  0  0  0  0
  4  6  1  0  0  0  0
  5  4  1  0  0  0  0
  6 10  1  0  0  0  0
  6  7  1  0  0  0  0
  8 10  1  0  0  0  0
  9  8  1  0  0  0  0
M  RAD  4   3   3   4   2   6   2   8   2
M  END
