Coordinates from ORCA-job Furan-3-N2+-scan-d09-169-n800
 OpenBabel09191814033D

 10  9  0  0  0  0  0  0  0  0999 V2000
   10.1857    5.5060    4.8752 N   0  0  0  0  0  0  0  0  0  0  0  0
   11.0862    5.9153    5.3688 N   0  0  0  0  0  0  0  0  0  0  0  0
   -3.2040   -1.3689   -2.1247 C   0  0  0  0  0  0  0  0  0  0  0  0
   -4.3274   -0.5959   -2.0129 C   0  0  0  0  0  0  0  0  0  0  0  0
   -5.3636   -0.7609   -2.2797 H   0  0  0  0  0  0  0  0  0  0  0  0
   -3.8762    0.0884   -0.8816 C   0  0  0  0  0  0  0  0  0  0  0  0
   -4.4703    0.4650   -0.0541 H   0  0  0  0  0  0  0  0  0  0  0  0
   -2.0462   -0.8805   -1.5560 C   0  0  0  0  0  0  0  0  0  0  0  0
   -0.9841   -1.0299   -1.6979 H   0  0  0  0  0  0  0  0  0  0  0  0
   -2.5143   -0.0645   -0.6070 O   0  0  0  0  0  0  0  0  0  0  0  0
  1  2  3  0  0  0  0
  3  4  1  0  0  0  0
  3  8  1  0  0  0  0
  4  6  1  0  0  0  0
  5  4  1  0  0  0  0
  6 10  1  0  0  0  0
  6  7  1  0  0  0  0
  8 10  1  0  0  0  0
  9  8  1  0  0  0  0
M  RAD  4   3   3   4   2   6   2   8   2
M  END
