Coordinates from ORCA-job Furan-3-N2+-scan-d09-169-n800
 OpenBabel09191814033D

 10  9  0  0  0  0  0  0  0  0999 V2000
    3.6945    2.3218    1.5878 N   0  0  0  0  0  0  0  0  0  0  0  0
    4.5812    2.7799    2.0628 N   0  0  0  0  0  0  0  0  0  0  0  0
   -1.1123   -0.4152   -1.2275 C   0  0  0  0  0  0  0  0  0  0  0  0
   -2.4175   -0.0645   -1.4407 C   0  0  0  0  0  0  0  0  0  0  0  0
   -3.2249   -0.5333   -1.9888 H   0  0  0  0  0  0  0  0  0  0  0  0
   -2.5447    0.6214   -0.2305 C   0  0  0  0  0  0  0  0  0  0  0  0
   -3.4292    0.7049    0.3942 H   0  0  0  0  0  0  0  0  0  0  0  0
   -0.3847    0.3705   -0.3567 C   0  0  0  0  0  0  0  0  0  0  0  0
    0.6616    0.5919   -0.1888 H   0  0  0  0  0  0  0  0  0  0  0  0
   -1.3380    0.8965    0.4183 O   0  0  0  0  0  0  0  0  0  0  0  0
  1  2  3  0  0  0  0
  3  8  1  0  0  0  0
  4  3  1  0  0  0  0
  4  6  1  0  0  0  0
  5  4  1  0  0  0  0
  6  7  1  0  0  0  0
  6 10  1  0  0  0  0
  8  9  1  0  0  0  0
  8 10  1  0  0  0  0
M  RAD  4   3   3   4   2   6   2   8   2
M  END
