Coordinates from ORCA-job Furan-3-N2+-scan-d09-169-n800
 OpenBabel09191814033D

 10  9  0  0  0  0  0  0  0  0999 V2000
    2.6065    1.7689    0.5956 N   0  0  0  0  0  0  0  0  0  0  0  0
    3.6974    1.8886    0.7242 N   0  0  0  0  0  0  0  0  0  0  0  0
   -0.5250   -0.0210    0.0814 C   0  0  0  0  0  0  0  0  0  0  0  0
   -1.4433   -0.6059   -0.7478 C   0  0  0  0  0  0  0  0  0  0  0  0
   -1.6772   -1.6381   -0.9748 H   0  0  0  0  0  0  0  0  0  0  0  0
   -2.3702    0.4330   -0.6356 C   0  0  0  0  0  0  0  0  0  0  0  0
   -3.4535    0.3590   -0.6490 H   0  0  0  0  0  0  0  0  0  0  0  0
   -0.5897    1.3509    0.2173 C   0  0  0  0  0  0  0  0  0  0  0  0
    0.1087    2.1290    0.4924 H   0  0  0  0  0  0  0  0  0  0  0  0
   -1.8678    1.6094   -0.0735 O   0  0  0  0  0  0  0  0  0  0  0  0
  1  2  3  0  0  0  0
  3  8  1  0  0  0  0
  4  6  1  0  0  0  0
  4  3  1  0  0  0  0
  5  4  1  0  0  0  0
  6 10  1  0  0  0  0
  7  6  1  0  0  0  0
  8  9  1  0  0  0  0
 10  8  1  0  0  0  0
M  RAD  4   3   3   4   2   6   2   8   2
M  END
