Coordinates from ORCA-job Furan-3-N2+-scan-d09-169-n800
 OpenBabel09191814033D

 10 10  0  0  0  0  0  0  0  0999 V2000
    1.3626    0.8127    0.1505 N   0  0  0  0  0  0  0  0  0  0  0  0
    2.4777    0.7938    0.2643 N   0  0  0  0  0  0  0  0  0  0  0  0
    0.0899    0.8112    0.0103 C   0  0  0  0  0  0  0  0  0  0  0  0
   -0.7384   -0.2439   -0.5467 C   0  0  0  0  0  0  0  0  0  0  0  0
   -0.4091   -1.1979   -0.9323 H   0  0  0  0  0  0  0  0  0  0  0  0
   -1.9962    0.2432   -0.4690 C   0  0  0  0  0  0  0  0  0  0  0  0
   -2.9661   -0.1419   -0.7452 H   0  0  0  0  0  0  0  0  0  0  0  0
   -0.7607    1.8590    0.3798 C   0  0  0  0  0  0  0  0  0  0  0  0
   -0.5803    2.8277    0.8275 H   0  0  0  0  0  0  0  0  0  0  0  0
   -1.9934    1.5102    0.0910 O   0  0  0  0  0  0  0  0  0  0  0  0
  1  2  1  0  0  0  0
  3  1  1  0  0  0  0
  3  8  2  0  0  0  0
  4  6  2  0  0  0  0
  4  3  1  0  0  0  0
  5  4  1  0  0  0  0
  6 10  1  0  0  0  0
  7  6  1  0  0  0  0
  8  9  1  0  0  0  0
 10  8  1  0  0  0  0
M  RAD  2   1   2   2   3
M  END
