Coordinates from ORCA-job Furan-3-N2+-scan-d09-169-n800
 OpenBabel09191814033D

 10  9  0  0  0  0  0  0  0  0999 V2000
    3.5881    2.2666    1.5281 N   0  0  0  0  0  0  0  0  0  0  0  0
    4.4752    2.7239    2.0032 N   0  0  0  0  0  0  0  0  0  0  0  0
   -1.0747   -0.3950   -1.2090 C   0  0  0  0  0  0  0  0  0  0  0  0
   -2.3812   -0.0552   -1.4319 C   0  0  0  0  0  0  0  0  0  0  0  0
   -3.1801   -0.5301   -1.9872 H   0  0  0  0  0  0  0  0  0  0  0  0
   -2.5239    0.6274   -0.2216 C   0  0  0  0  0  0  0  0  0  0  0  0
   -3.4141    0.7021    0.3961 H   0  0  0  0  0  0  0  0  0  0  0  0
   -0.3607    0.3958   -0.3311 C   0  0  0  0  0  0  0  0  0  0  0  0
    0.6821    0.6265   -0.1537 H   0  0  0  0  0  0  0  0  0  0  0  0
   -1.3249    0.9119    0.4371 O   0  0  0  0  0  0  0  0  0  0  0  0
  1  2  3  0  0  0  0
  3  8  1  0  0  0  0
  4  3  1  0  0  0  0
  4  6  1  0  0  0  0
  5  4  1  0  0  0  0
  6  7  1  0  0  0  0
  6 10  1  0  0  0  0
  8  9  1  0  0  0  0
  8 10  1  0  0  0  0
M  RAD  4   3   3   4   2   6   2   8   2
M  END
