Coordinates from ORCA-job Furan-3-N2+-scan-d09-169-n800
 OpenBabel09191814033D

 10  9  0  0  0  0  0  0  0  0999 V2000
    2.3739    1.0211    0.2878 N   0  0  0  0  0  0  0  0  0  0  0  0
    3.4745    1.1065    0.3349 N   0  0  0  0  0  0  0  0  0  0  0  0
   -0.3990    0.4963    0.2518 C   0  0  0  0  0  0  0  0  0  0  0  0
   -1.0021   -0.3288   -0.6633 C   0  0  0  0  0  0  0  0  0  0  0  0
   -0.8504   -1.3648   -0.9350 H   0  0  0  0  0  0  0  0  0  0  0  0
   -2.2158    0.3512   -0.6523 C   0  0  0  0  0  0  0  0  0  0  0  0
   -3.2096   -0.0441   -0.8340 H   0  0  0  0  0  0  0  0  0  0  0  0
   -0.9232    1.7507    0.4297 C   0  0  0  0  0  0  0  0  0  0  0  0
   -0.5815    2.6991    0.8181 H   0  0  0  0  0  0  0  0  0  0  0  0
   -2.1808    1.5867   -0.0074 O   0  0  0  0  0  0  0  0  0  0  0  0
  1  2  3  0  0  0  0
  3  8  1  0  0  0  0
  4  6  1  0  0  0  0
  4  3  1  0  0  0  0
  5  4  1  0  0  0  0
  6 10  1  0  0  0  0
  7  6  1  0  0  0  0
  8  9  1  0  0  0  0
 10  8  1  0  0  0  0
M  RAD  4   3   3   4   2   6   2   8   2
M  END
