Coordinates from ORCA-job Furan-3-N2+-scan-d09-169-n800
 OpenBabel09191814033D

 10  9  0  0  0  0  0  0  0  0999 V2000
    3.2196    2.0852    1.3348 N   0  0  0  0  0  0  0  0  0  0  0  0
    4.1060    2.5403    1.8128 N   0  0  0  0  0  0  0  0  0  0  0  0
   -0.9534   -0.3324   -1.1508 C   0  0  0  0  0  0  0  0  0  0  0  0
   -2.2633   -0.0239   -1.3985 C   0  0  0  0  0  0  0  0  0  0  0  0
   -3.0390   -0.5164   -1.9709 H   0  0  0  0  0  0  0  0  0  0  0  0
   -2.4467    0.6511   -0.1897 C   0  0  0  0  0  0  0  0  0  0  0  0
   -3.3504    0.7024    0.4105 H   0  0  0  0  0  0  0  0  0  0  0  0
   -0.2758    0.4739   -0.2572 C   0  0  0  0  0  0  0  0  0  0  0  0
    0.7571    0.7310   -0.0541 H   0  0  0  0  0  0  0  0  0  0  0  0
   -1.2682    0.9627    0.4931 O   0  0  0  0  0  0  0  0  0  0  0  0
  1  2  3  0  0  0  0
  3  8  1  0  0  0  0
  4  3  1  0  0  0  0
  4  6  1  0  0  0  0
  5  4  1  0  0  0  0
  6  7  1  0  0  0  0
  6 10  1  0  0  0  0
  8  9  1  0  0  0  0
  8 10  1  0  0  0  0
M  RAD  4   3   3   4   2   6   2   8   2
M  END
