Coordinates from ORCA-job Furan-3-N2+-scan-d09-169-n800
 OpenBabel09191814033D

 10  9  0  0  0  0  0  0  0  0999 V2000
    7.9536    4.4335    3.7807 N   0  0  0  0  0  0  0  0  0  0  0  0
    8.8558    4.8619    4.2547 N   0  0  0  0  0  0  0  0  0  0  0  0
   -2.5117   -1.0714   -1.8457 C   0  0  0  0  0  0  0  0  0  0  0  0
   -3.7084   -0.4090   -1.8121 C   0  0  0  0  0  0  0  0  0  0  0  0
   -4.7010   -0.6647   -2.1607 H   0  0  0  0  0  0  0  0  0  0  0  0
   -3.4114    0.2921   -0.6409 C   0  0  0  0  0  0  0  0  0  0  0  0
   -4.0999    0.5956    0.1424 H   0  0  0  0  0  0  0  0  0  0  0  0
   -1.4520   -0.4891   -1.1825 C   0  0  0  0  0  0  0  0  0  0  0  0
   -0.3728   -0.5357   -1.2431 H   0  0  0  0  0  0  0  0  0  0  0  0
   -2.0664    0.2608   -0.2626 O   0  0  0  0  0  0  0  0  0  0  0  0
  1  2  3  0  0  0  0
  3  4  1  0  0  0  0
  3  8  1  0  0  0  0
  4  6  1  0  0  0  0
  5  4  1  0  0  0  0
  6 10  1  0  0  0  0
  6  7  1  0  0  0  0
  8 10  1  0  0  0  0
  9  8  1  0  0  0  0
M  RAD  4   3   3   4   2   6   2   8   2
M  END
