Coordinates from ORCA-job Furan-3-N2+-scan-d09-169-n800
 OpenBabel09191814033D

 10  9  0  0  0  0  0  0  0  0999 V2000
    2.5874    1.5625    0.4880 N   0  0  0  0  0  0  0  0  0  0  0  0
    3.6747    1.7462    0.5610 N   0  0  0  0  0  0  0  0  0  0  0  0
   -0.5286    0.0793    0.1974 C   0  0  0  0  0  0  0  0  0  0  0  0
   -1.3339   -0.5571   -0.7081 C   0  0  0  0  0  0  0  0  0  0  0  0
   -1.4833   -1.6006   -0.9539 H   0  0  0  0  0  0  0  0  0  0  0  0
   -2.3267    0.4243   -0.6803 C   0  0  0  0  0  0  0  0  0  0  0  0
   -3.3980    0.2879   -0.7940 H   0  0  0  0  0  0  0  0  0  0  0  0
   -0.6869    1.4425    0.3287 C   0  0  0  0  0  0  0  0  0  0  0  0
   -0.0709    2.2635    0.6669 H   0  0  0  0  0  0  0  0  0  0  0  0
   -1.9480    1.6254   -0.0755 O   0  0  0  0  0  0  0  0  0  0  0  0
  1  2  3  0  0  0  0
  3  8  1  0  0  0  0
  4  6  1  0  0  0  0
  4  3  1  0  0  0  0
  5  4  1  0  0  0  0
  6 10  1  0  0  0  0
  7  6  1  0  0  0  0
  8  9  1  0  0  0  0
 10  8  1  0  0  0  0
M  RAD  4   3   3   4   2   6   2   8   2
M  END
