Coordinates from ORCA-job Furan-3-N2+-scan-d09-169-n800
 OpenBabel09191814033D

 10  9  0  0  0  0  0  0  0  0999 V2000
    9.7316    5.2927    4.6596 N   0  0  0  0  0  0  0  0  0  0  0  0
   10.6366    5.7070    5.1406 N   0  0  0  0  0  0  0  0  0  0  0  0
   -3.0693   -1.3082   -2.0735 C   0  0  0  0  0  0  0  0  0  0  0  0
   -4.2038   -0.5500   -1.9734 C   0  0  0  0  0  0  0  0  0  0  0  0
   -5.2336   -0.7255   -2.2577 H   0  0  0  0  0  0  0  0  0  0  0  0
   -3.7787    0.1305   -0.8299 C   0  0  0  0  0  0  0  0  0  0  0  0
   -4.3902    0.4932   -0.0089 H   0  0  0  0  0  0  0  0  0  0  0  0
   -1.9265   -0.8109   -1.4829 C   0  0  0  0  0  0  0  0  0  0  0  0
   -0.8606   -0.9465   -1.6089 H   0  0  0  0  0  0  0  0  0  0  0  0
   -2.4197   -0.0084   -0.5348 O   0  0  0  0  0  0  0  0  0  0  0  0
  1  2  3  0  0  0  0
  3  4  1  0  0  0  0
  3  8  1  0  0  0  0
  4  6  1  0  0  0  0
  5  4  1  0  0  0  0
  6 10  1  0  0  0  0
  6  7  1  0  0  0  0
  8 10  1  0  0  0  0
  9  8  1  0  0  0  0
M  RAD  4   3   3   4   2   6   2   8   2
M  END
