Coordinates from ORCA-job Furan-3-N2+-scan-d09-169-n800
 OpenBabel09191814033D

 10  9  0  0  0  0  0  0  0  0999 V2000
    7.5454    4.2304    3.5732 N   0  0  0  0  0  0  0  0  0  0  0  0
    8.4471    4.6575    4.0492 N   0  0  0  0  0  0  0  0  0  0  0  0
   -2.3736   -1.0148   -1.7856 C   0  0  0  0  0  0  0  0  0  0  0  0
   -3.5898   -0.3880   -1.7749 C   0  0  0  0  0  0  0  0  0  0  0  0
   -4.5684   -0.6744   -2.1386 H   0  0  0  0  0  0  0  0  0  0  0  0
   -3.3332    0.3266   -0.6024 C   0  0  0  0  0  0  0  0  0  0  0  0
   -4.0432    0.6132    0.1679 H   0  0  0  0  0  0  0  0  0  0  0  0
   -1.3426   -0.3983   -1.1078 C   0  0  0  0  0  0  0  0  0  0  0  0
   -0.2616   -0.4150   -1.1490 H   0  0  0  0  0  0  0  0  0  0  0  0
   -1.9942    0.3369   -0.2019 O   0  0  0  0  0  0  0  0  0  0  0  0
  1  2  3  0  0  0  0
  3  4  1  0  0  0  0
  3  8  1  0  0  0  0
  4  6  1  0  0  0  0
  5  4  1  0  0  0  0
  6 10  1  0  0  0  0
  6  7  1  0  0  0  0
  8 10  1  0  0  0  0
  9  8  1  0  0  0  0
M  RAD  4   3   3   4   2   6   2   8   2
M  END
