Coordinates from ORCA-job Furan-3-N2+-scan-d09-169-n800
 OpenBabel09191814033D

 10  9  0  0  0  0  0  0  0  0999 V2000
    9.2787    5.0758    4.4455 N   0  0  0  0  0  0  0  0  0  0  0  0
   10.1866    5.5007    4.9117 N   0  0  0  0  0  0  0  0  0  0  0  0
   -2.9343   -1.2498   -2.0200 C   0  0  0  0  0  0  0  0  0  0  0  0
   -4.0803   -0.5073   -1.9324 C   0  0  0  0  0  0  0  0  0  0  0  0
   -5.1034   -0.6953   -2.2326 H   0  0  0  0  0  0  0  0  0  0  0  0
   -3.6815    0.1727   -0.7791 C   0  0  0  0  0  0  0  0  0  0  0  0
   -4.3099    0.5219    0.0350 H   0  0  0  0  0  0  0  0  0  0  0  0
   -1.8073   -0.7387   -1.4104 C   0  0  0  0  0  0  0  0  0  0  0  0
   -0.7378   -0.8576   -1.5222 H   0  0  0  0  0  0  0  0  0  0  0  0
   -2.3249    0.0514   -0.4654 O   0  0  0  0  0  0  0  0  0  0  0  0
  1  2  3  0  0  0  0
  3  4  1  0  0  0  0
  3  8  1  0  0  0  0
  4  6  1  0  0  0  0
  5  4  1  0  0  0  0
  6 10  1  0  0  0  0
  6  7  1  0  0  0  0
  8 10  1  0  0  0  0
  9  8  1  0  0  0  0
M  RAD  4   3   3   4   2   6   2   8   2
M  END
