Coordinates from ORCA-job Furan-3-N2+-scan-d09-169-n800
 OpenBabel09191814033D

 10  9  0  0  0  0  0  0  0  0999 V2000
    2.6103    1.6552    0.5312 N   0  0  0  0  0  0  0  0  0  0  0  0
    3.6975    1.8311    0.6218 N   0  0  0  0  0  0  0  0  0  0  0  0
   -0.5368    0.0260    0.1590 C   0  0  0  0  0  0  0  0  0  0  0  0
   -1.3874   -0.5835   -0.7233 C   0  0  0  0  0  0  0  0  0  0  0  0
   -1.5789   -1.6216   -0.9625 H   0  0  0  0  0  0  0  0  0  0  0  0
   -2.3461    0.4305   -0.6691 C   0  0  0  0  0  0  0  0  0  0  0  0
   -3.4241    0.3288   -0.7513 H   0  0  0  0  0  0  0  0  0  0  0  0
   -0.6456    1.3943    0.2915 C   0  0  0  0  0  0  0  0  0  0  0  0
    0.0079    2.1942    0.6100 H   0  0  0  0  0  0  0  0  0  0  0  0
   -1.9108    1.6189   -0.0772 O   0  0  0  0  0  0  0  0  0  0  0  0
  1  2  3  0  0  0  0
  3  8  1  0  0  0  0
  4  6  1  0  0  0  0
  4  3  1  0  0  0  0
  5  4  1  0  0  0  0
  6 10  1  0  0  0  0
  7  6  1  0  0  0  0
  8  9  1  0  0  0  0
 10  8  1  0  0  0  0
M  RAD  4   3   3   4   2   6   2   8   2
M  END
