Coordinates from ORCA-job Furan-3-N2+-scan-d09-169-n800
 OpenBabel09191814033D

 10  9  0  0  0  0  0  0  0  0999 V2000
    8.6555    4.7773    4.1345 N   0  0  0  0  0  0  0  0  0  0  0  0
    9.5604    5.2047    4.6042 N   0  0  0  0  0  0  0  0  0  0  0  0
   -2.7403   -1.1659   -1.9422 C   0  0  0  0  0  0  0  0  0  0  0  0
   -3.9075   -0.4550   -1.8760 C   0  0  0  0  0  0  0  0  0  0  0  0
   -4.9185   -0.6687   -2.1990 H   0  0  0  0  0  0  0  0  0  0  0  0
   -3.5514    0.2299   -0.7117 C   0  0  0  0  0  0  0  0  0  0  0  0
   -4.2062    0.5590    0.0899 H   0  0  0  0  0  0  0  0  0  0  0  0
   -1.6406   -0.6295   -1.3059 C   0  0  0  0  0  0  0  0  0  0  0  0
   -0.5662   -0.7202   -1.3949 H   0  0  0  0  0  0  0  0  0  0  0  0
   -2.1994    0.1423   -0.3688 O   0  0  0  0  0  0  0  0  0  0  0  0
  1  2  3  0  0  0  0
  3  4  1  0  0  0  0
  3  8  1  0  0  0  0
  4  6  1  0  0  0  0
  5  4  1  0  0  0  0
  6 10  1  0  0  0  0
  6  7  1  0  0  0  0
  8 10  1  0  0  0  0
  9  8  1  0  0  0  0
M  RAD  4   3   3   4   2   6   2   8   2
M  END
