Coordinates from ORCA-job Furan-3-N2+-scan-d09-169-n800
 OpenBabel09191814033D

 10  9  0  0  0  0  0  0  0  0999 V2000
    1.9274    0.8229    0.2166 N   0  0  0  0  0  0  0  0  0  0  0  0
    3.0250    0.8156    0.3335 N   0  0  0  0  0  0  0  0  0  0  0  0
   -0.2008    0.8093   -0.0224 C   0  0  0  0  0  0  0  0  0  0  0  0
   -0.8573   -0.2848   -0.5775 C   0  0  0  0  0  0  0  0  0  0  0  0
   -0.5230   -1.2360   -0.9611 H   0  0  0  0  0  0  0  0  0  0  0  0
   -2.1210    0.2422   -0.4834 C   0  0  0  0  0  0  0  0  0  0  0  0
   -3.0846   -0.1580   -0.7658 H   0  0  0  0  0  0  0  0  0  0  0  0
   -0.8688    1.8991    0.3859 C   0  0  0  0  0  0  0  0  0  0  0  0
   -0.6783    2.8611    0.8317 H   0  0  0  0  0  0  0  0  0  0  0  0
   -2.1328    1.5026    0.0725 O   0  0  0  0  0  0  0  0  0  0  0  0
  1  2  3  0  0  0  0
  3  8  2  0  0  0  0
  4  6  2  0  0  0  0
  4  3  1  0  0  0  0
  5  4  1  0  0  0  0
  6 10  1  0  0  0  0
  7  6  1  0  0  0  0
  8  9  1  0  0  0  0
 10  8  1  0  0  0  0
M  RAD  1   3   2
M  END
