Coordinates from ORCA-job Furan-3-N2+-scan-d09-169-n800
 OpenBabel09191814033D

 10  9  0  0  0  0  0  0  0  0999 V2000
    9.9393    5.3914    4.7550 N   0  0  0  0  0  0  0  0  0  0  0  0
   10.8402    5.8009    5.2478 N   0  0  0  0  0  0  0  0  0  0  0  0
   -3.1316   -1.3366   -2.0967 C   0  0  0  0  0  0  0  0  0  0  0  0
   -4.2605   -0.5708   -1.9908 C   0  0  0  0  0  0  0  0  0  0  0  0
   -5.2935   -0.7410   -2.2665 H   0  0  0  0  0  0  0  0  0  0  0  0
   -3.8224    0.1117   -0.8533 C   0  0  0  0  0  0  0  0  0  0  0  0
   -4.4254    0.4814   -0.0290 H   0  0  0  0  0  0  0  0  0  0  0  0
   -1.9813   -0.8433   -1.5169 C   0  0  0  0  0  0  0  0  0  0  0  0
   -0.9172   -0.9857   -1.6509 H   0  0  0  0  0  0  0  0  0  0  0  0
   -2.4618   -0.0340   -0.5685 O   0  0  0  0  0  0  0  0  0  0  0  0
  1  2  3  0  0  0  0
  3  4  1  0  0  0  0
  3  8  1  0  0  0  0
  4  6  1  0  0  0  0
  5  4  1  0  0  0  0
  6 10  1  0  0  0  0
  6  7  1  0  0  0  0
  8 10  1  0  0  0  0
  9  8  1  0  0  0  0
M  RAD  4   3   3   4   2   6   2   8   2
M  END
