Coordinates from ORCA-job Furan-3-N2+-scan-d09-169-n800
 OpenBabel09191814033D

 10  9  0  0  0  0  0  0  0  0999 V2000
    7.9412    4.4274    3.7744 N   0  0  0  0  0  0  0  0  0  0  0  0
    8.8433    4.8557    4.2485 N   0  0  0  0  0  0  0  0  0  0  0  0
   -2.5076   -1.0698   -1.8439 C   0  0  0  0  0  0  0  0  0  0  0  0
   -3.7049   -0.4084   -1.8110 C   0  0  0  0  0  0  0  0  0  0  0  0
   -4.6971   -0.6650   -2.1599 H   0  0  0  0  0  0  0  0  0  0  0  0
   -3.4090    0.2932   -0.6398 C   0  0  0  0  0  0  0  0  0  0  0  0
   -4.0981    0.5962    0.1432 H   0  0  0  0  0  0  0  0  0  0  0  0
   -1.4486   -0.4863   -1.1803 C   0  0  0  0  0  0  0  0  0  0  0  0
   -0.3694   -0.5320   -1.2404 H   0  0  0  0  0  0  0  0  0  0  0  0
   -2.0641    0.2631   -0.2608 O   0  0  0  0  0  0  0  0  0  0  0  0
  1  2  3  0  0  0  0
  3  4  1  0  0  0  0
  3  8  1  0  0  0  0
  4  6  1  0  0  0  0
  5  4  1  0  0  0  0
  6 10  1  0  0  0  0
  6  7  1  0  0  0  0
  8 10  1  0  0  0  0
  9  8  1  0  0  0  0
M  RAD  4   3   3   4   2   6   2   8   2
M  END
