Coordinates from ORCA-job Furan-3-N2+-scan-d09-169-n800
 OpenBabel09191814033D

 10  9  0  0  0  0  0  0  0  0999 V2000
    8.1780    4.5443    3.8939 N   0  0  0  0  0  0  0  0  0  0  0  0
    9.0805    4.9730    4.3669 N   0  0  0  0  0  0  0  0  0  0  0  0
   -2.5861   -1.1016   -1.8779 C   0  0  0  0  0  0  0  0  0  0  0  0
   -3.7725   -0.4216   -1.8328 C   0  0  0  0  0  0  0  0  0  0  0  0
   -4.7717   -0.6618   -2.1735 H   0  0  0  0  0  0  0  0  0  0  0  0
   -3.4553    0.2724   -0.6627 C   0  0  0  0  0  0  0  0  0  0  0  0
   -4.1326    0.5843    0.1270 H   0  0  0  0  0  0  0  0  0  0  0  0
   -1.5123   -0.5364   -1.2224 C   0  0  0  0  0  0  0  0  0  0  0  0
   -0.4345   -0.5989   -1.2923 H   0  0  0  0  0  0  0  0  0  0  0  0
   -2.1077    0.2204   -0.2959 O   0  0  0  0  0  0  0  0  0  0  0  0
  1  2  3  0  0  0  0
  3  4  1  0  0  0  0
  3  8  1  0  0  0  0
  4  6  1  0  0  0  0
  5  4  1  0  0  0  0
  6 10  1  0  0  0  0
  6  7  1  0  0  0  0
  8 10  1  0  0  0  0
  9  8  1  0  0  0  0
M  RAD  4   3   3   4   2   6   2   8   2
M  END
