Coordinates from ORCA-job Furan-3-N2+-scan-d09-169-n800
 OpenBabel09191814033D

 10  9  0  0  0  0  0  0  0  0999 V2000
    7.3826    4.1518    3.4899 N   0  0  0  0  0  0  0  0  0  0  0  0
    8.2838    4.5796    3.9663 N   0  0  0  0  0  0  0  0  0  0  0  0
   -2.3206   -0.9905   -1.7648 C   0  0  0  0  0  0  0  0  0  0  0  0
   -3.5418   -0.3732   -1.7621 C   0  0  0  0  0  0  0  0  0  0  0  0
   -4.5151   -0.6660   -2.1349 H   0  0  0  0  0  0  0  0  0  0  0  0
   -3.3004    0.3397   -0.5853 C   0  0  0  0  0  0  0  0  0  0  0  0
   -4.0189    0.6183    0.1800 H   0  0  0  0  0  0  0  0  0  0  0  0
   -1.3001   -0.3682   -1.0765 C   0  0  0  0  0  0  0  0  0  0  0  0
   -0.2187   -0.3766   -1.1088 H   0  0  0  0  0  0  0  0  0  0  0  0
   -1.9648    0.3590   -0.1737 O   0  0  0  0  0  0  0  0  0  0  0  0
  1  2  3  0  0  0  0
  3  4  1  0  0  0  0
  3  8  1  0  0  0  0
  4  6  1  0  0  0  0
  5  4  1  0  0  0  0
  6 10  1  0  0  0  0
  6  7  1  0  0  0  0
  8 10  1  0  0  0  0
  9  8  1  0  0  0  0
M  RAD  4   3   3   4   2   6   2   8   2
M  END
