Coordinates from ORCA-job Furan-3-N2+-scan-d09-169-n800
 OpenBabel09191814033D

 10  9  0  0  0  0  0  0  0  0999 V2000
    3.6472    2.2973    1.5613 N   0  0  0  0  0  0  0  0  0  0  0  0
    4.5341    2.7550    2.0363 N   0  0  0  0  0  0  0  0  0  0  0  0
   -1.0955   -0.4062   -1.2193 C   0  0  0  0  0  0  0  0  0  0  0  0
   -2.4014   -0.0604   -1.4368 C   0  0  0  0  0  0  0  0  0  0  0  0
   -3.2050   -0.5319   -1.9881 H   0  0  0  0  0  0  0  0  0  0  0  0
   -2.5355    0.6241   -0.2265 C   0  0  0  0  0  0  0  0  0  0  0  0
   -3.4226    0.7037    0.3950 H   0  0  0  0  0  0  0  0  0  0  0  0
   -0.3740    0.3817   -0.3453 C   0  0  0  0  0  0  0  0  0  0  0  0
    0.6707    0.6073   -0.1732 H   0  0  0  0  0  0  0  0  0  0  0  0
   -1.3322    0.9034    0.4267 O   0  0  0  0  0  0  0  0  0  0  0  0
  1  2  3  0  0  0  0
  3  8  1  0  0  0  0
  4  3  1  0  0  0  0
  4  6  1  0  0  0  0
  5  4  1  0  0  0  0
  6  7  1  0  0  0  0
  6 10  1  0  0  0  0
  8  9  1  0  0  0  0
  8 10  1  0  0  0  0
M  RAD  4   3   3   4   2   6   2   8   2
M  END
