Coordinates from ORCA-job Furan-3-N2+-scan-d09-169-n800
 OpenBabel09191814033D

 10  9  0  0  0  0  0  0  0  0999 V2000
    7.2576    4.0913    3.4260 N   0  0  0  0  0  0  0  0  0  0  0  0
    8.1584    4.5196    3.9026 N   0  0  0  0  0  0  0  0  0  0  0  0
   -2.2798   -0.9717   -1.7486 C   0  0  0  0  0  0  0  0  0  0  0  0
   -3.5047   -0.3619   -1.7523 C   0  0  0  0  0  0  0  0  0  0  0  0
   -4.4739   -0.6598   -2.1319 H   0  0  0  0  0  0  0  0  0  0  0  0
   -3.2752    0.3496   -0.5723 C   0  0  0  0  0  0  0  0  0  0  0  0
   -4.0003    0.6220    0.1890 H   0  0  0  0  0  0  0  0  0  0  0  0
   -1.2676   -0.3448   -1.0524 C   0  0  0  0  0  0  0  0  0  0  0  0
   -0.1860   -0.3464   -1.0778 H   0  0  0  0  0  0  0  0  0  0  0  0
   -1.9425    0.3762   -0.1521 O   0  0  0  0  0  0  0  0  0  0  0  0
  1  2  3  0  0  0  0
  3  8  1  0  0  0  0
  4  3  1  0  0  0  0
  4  6  1  0  0  0  0
  5  4  1  0  0  0  0
  6 10  1  0  0  0  0
  6  7  1  0  0  0  0
  8 10  1  0  0  0  0
  9  8  1  0  0  0  0
M  RAD  4   3   3   4   2   6   2   8   2
M  END
