Coordinates from ORCA-job Furan-3-N2+-scan-d09-169-n800
 OpenBabel09191814033D

 10  9  0  0  0  0  0  0  0  0999 V2000
    2.4412    1.0531    0.3029 N   0  0  0  0  0  0  0  0  0  0  0  0
    3.5403    1.1534    0.3549 N   0  0  0  0  0  0  0  0  0  0  0  0
   -0.4218    0.4684    0.2506 C   0  0  0  0  0  0  0  0  0  0  0  0
   -1.0323   -0.3447   -0.6688 C   0  0  0  0  0  0  0  0  0  0  0  0
   -0.8988   -1.3837   -0.9393 H   0  0  0  0  0  0  0  0  0  0  0  0
   -2.2361    0.3548   -0.6573 C   0  0  0  0  0  0  0  0  0  0  0  0
   -3.2358   -0.0279   -0.8347 H   0  0  0  0  0  0  0  0  0  0  0  0
   -0.9233    1.7333    0.4245 C   0  0  0  0  0  0  0  0  0  0  0  0
   -0.5645    2.6765    0.8105 H   0  0  0  0  0  0  0  0  0  0  0  0
   -2.1831    1.5908   -0.0131 O   0  0  0  0  0  0  0  0  0  0  0  0
  1  2  3  0  0  0  0
  3  8  1  0  0  0  0
  4  6  1  0  0  0  0
  4  3  1  0  0  0  0
  5  4  1  0  0  0  0
  6 10  1  0  0  0  0
  7  6  1  0  0  0  0
  8  9  1  0  0  0  0
 10  8  1  0  0  0  0
M  RAD  4   3   3   4   2   6   2   8   2
M  END
