Coordinates from ORCA-job Furan-3-N2+-scan-d09-169-n800
 OpenBabel09191814033D

 10 10  0  0  0  0  0  0  0  0999 V2000
    1.5212    0.8185    0.1705 N   0  0  0  0  0  0  0  0  0  0  0  0
    2.6254    0.8050    0.2857 N   0  0  0  0  0  0  0  0  0  0  0  0
    0.0101    0.8077   -0.0000 C   0  0  0  0  0  0  0  0  0  0  0  0
   -0.7699   -0.2530   -0.5544 C   0  0  0  0  0  0  0  0  0  0  0  0
   -0.4459   -1.2075   -0.9409 H   0  0  0  0  0  0  0  0  0  0  0  0
   -2.0310    0.2458   -0.4715 C   0  0  0  0  0  0  0  0  0  0  0  0
   -2.9986   -0.1437   -0.7492 H   0  0  0  0  0  0  0  0  0  0  0  0
   -0.7868    1.8642    0.3791 C   0  0  0  0  0  0  0  0  0  0  0  0
   -0.6065    2.8311    0.8259 H   0  0  0  0  0  0  0  0  0  0  0  0
   -2.0320    1.5060    0.0850 O   0  0  0  0  0  0  0  0  0  0  0  0
  1  2  1  0  0  0  0
  3  1  1  0  0  0  0
  3  8  2  0  0  0  0
  4  6  2  0  0  0  0
  4  3  1  0  0  0  0
  5  4  1  0  0  0  0
  6 10  1  0  0  0  0
  7  6  1  0  0  0  0
  8  9  1  0  0  0  0
 10  8  1  0  0  0  0
M  RAD  2   1   2   2   3
M  END
