Coordinates from ORCA-job Furan-3-N2+-scan-d09-169-n800
 OpenBabel09191814033D

 10  9  0  0  0  0  0  0  0  0999 V2000
    8.9342    4.9118    4.2744 N   0  0  0  0  0  0  0  0  0  0  0  0
    9.8408    5.3377    4.7421 N   0  0  0  0  0  0  0  0  0  0  0  0
   -2.8280   -1.2032   -1.9778 C   0  0  0  0  0  0  0  0  0  0  0  0
   -3.9854   -0.4775   -1.9011 C   0  0  0  0  0  0  0  0  0  0  0  0
   -5.0022   -0.6789   -2.2135 H   0  0  0  0  0  0  0  0  0  0  0  0
   -3.6090    0.2046   -0.7416 C   0  0  0  0  0  0  0  0  0  0  0  0
   -4.2514    0.5433    0.0661 H   0  0  0  0  0  0  0  0  0  0  0  0
   -1.7152   -0.6798   -1.3534 C   0  0  0  0  0  0  0  0  0  0  0  0
   -0.6430   -0.7843   -1.4531 H   0  0  0  0  0  0  0  0  0  0  0  0
   -2.2548    0.1004   -0.4121 O   0  0  0  0  0  0  0  0  0  0  0  0
  1  2  3  0  0  0  0
  3  4  1  0  0  0  0
  3  8  1  0  0  0  0
  4  6  1  0  0  0  0
  5  4  1  0  0  0  0
  6 10  1  0  0  0  0
  6  7  1  0  0  0  0
  8 10  1  0  0  0  0
  9  8  1  0  0  0  0
M  RAD  4   3   3   4   2   6   2   8   2
M  END
