Coordinates from ORCA-job Furan-3-N2+-scan-d09-169-n800
 OpenBabel09191814033D

 10  9  0  0  0  0  0  0  0  0999 V2000
    2.5953    1.6985    0.5492 N   0  0  0  0  0  0  0  0  0  0  0  0
    3.6847    1.8580    0.6429 N   0  0  0  0  0  0  0  0  0  0  0  0
   -0.5353    0.0028    0.1434 C   0  0  0  0  0  0  0  0  0  0  0  0
   -1.4058   -0.5932   -0.7287 C   0  0  0  0  0  0  0  0  0  0  0  0
   -1.6164   -1.6284   -0.9648 H   0  0  0  0  0  0  0  0  0  0  0  0
   -2.3485    0.4351   -0.6631 C   0  0  0  0  0  0  0  0  0  0  0  0
   -3.4290    0.3494   -0.7303 H   0  0  0  0  0  0  0  0  0  0  0  0
   -0.6222    1.3733    0.2753 C   0  0  0  0  0  0  0  0  0  0  0  0
    0.0507    2.1609    0.5840 H   0  0  0  0  0  0  0  0  0  0  0  0
   -1.8876    1.6176   -0.0779 O   0  0  0  0  0  0  0  0  0  0  0  0
  1  2  3  0  0  0  0
  3  8  1  0  0  0  0
  4  6  1  0  0  0  0
  4  3  1  0  0  0  0
  5  4  1  0  0  0  0
  6 10  1  0  0  0  0
  7  6  1  0  0  0  0
  8  9  1  0  0  0  0
 10  8  1  0  0  0  0
M  RAD  4   3   3   4   2   6   2   8   2
M  END
