Coordinates from ORCA-job Furan-3-N2+-scan-d09-169-n800
 OpenBabel09191814033D

 10  9  0  0  0  0  0  0  0  0999 V2000
    3.7533    2.3526    1.6210 N   0  0  0  0  0  0  0  0  0  0  0  0
    4.6397    2.8112    2.0961 N   0  0  0  0  0  0  0  0  0  0  0  0
   -1.1333   -0.4265   -1.2379 C   0  0  0  0  0  0  0  0  0  0  0  0
   -2.4377   -0.0696   -1.4454 C   0  0  0  0  0  0  0  0  0  0  0  0
   -3.2499   -0.5348   -1.9895 H   0  0  0  0  0  0  0  0  0  0  0  0
   -2.5560    0.6181   -0.2354 C   0  0  0  0  0  0  0  0  0  0  0  0
   -3.4373    0.7066    0.3932 H   0  0  0  0  0  0  0  0  0  0  0  0
   -0.3979    0.3562   -0.3711 C   0  0  0  0  0  0  0  0  0  0  0  0
    0.6501    0.5723   -0.2085 H   0  0  0  0  0  0  0  0  0  0  0  0
   -1.3450    0.8878    0.4077 O   0  0  0  0  0  0  0  0  0  0  0  0
  1  2  3  0  0  0  0
  3  8  1  0  0  0  0
  4  3  1  0  0  0  0
  4  6  1  0  0  0  0
  5  4  1  0  0  0  0
  6  7  1  0  0  0  0
  6 10  1  0  0  0  0
  8  9  1  0  0  0  0
  8 10  1  0  0  0  0
M  RAD  4   3   3   4   2   6   2   8   2
M  END
