Coordinates from ORCA-job Furan-3-N2+-scan-d09-169-n800
 OpenBabel09191814033D

 10  9  0  0  0  0  0  0  0  0999 V2000
    8.9979    4.9422    4.3061 N   0  0  0  0  0  0  0  0  0  0  0  0
    9.9047    5.3680    4.7735 N   0  0  0  0  0  0  0  0  0  0  0  0
   -2.8478   -1.2117   -1.9857 C   0  0  0  0  0  0  0  0  0  0  0  0
   -4.0031   -0.4829   -1.9068 C   0  0  0  0  0  0  0  0  0  0  0  0
   -5.0211   -0.6817   -2.2168 H   0  0  0  0  0  0  0  0  0  0  0  0
   -3.6223    0.1988   -0.7485 C   0  0  0  0  0  0  0  0  0  0  0  0
   -4.2620    0.5396    0.0604 H   0  0  0  0  0  0  0  0  0  0  0  0
   -1.7322   -0.6910   -1.3641 C   0  0  0  0  0  0  0  0  0  0  0  0
   -0.6606   -0.7984   -1.4661 H   0  0  0  0  0  0  0  0  0  0  0  0
   -2.2676    0.0911   -0.4220 O   0  0  0  0  0  0  0  0  0  0  0  0
  1  2  3  0  0  0  0
  3  4  1  0  0  0  0
  3  8  1  0  0  0  0
  4  6  1  0  0  0  0
  5  4  1  0  0  0  0
  6 10  1  0  0  0  0
  6  7  1  0  0  0  0
  8 10  1  0  0  0  0
  9  8  1  0  0  0  0
M  RAD  4   3   3   4   2   6   2   8   2
M  END
