Coordinates from ORCA-job Furan-3-N2+-scan-d09-169-n800
 OpenBabel09191814033D

 10  9  0  0  0  0  0  0  0  0999 V2000
    9.8618    5.3552    4.7173 N   0  0  0  0  0  0  0  0  0  0  0  0
   10.7629    5.7648    5.2094 N   0  0  0  0  0  0  0  0  0  0  0  0
   -3.1084   -1.3263   -2.0879 C   0  0  0  0  0  0  0  0  0  0  0  0
   -4.2393   -0.5631   -1.9840 C   0  0  0  0  0  0  0  0  0  0  0  0
   -5.2712   -0.7352   -2.2627 H   0  0  0  0  0  0  0  0  0  0  0  0
   -3.8058    0.1189   -0.8445 C   0  0  0  0  0  0  0  0  0  0  0  0
   -4.4117    0.4862   -0.0214 H   0  0  0  0  0  0  0  0  0  0  0  0
   -1.9608   -0.8313   -1.5043 C   0  0  0  0  0  0  0  0  0  0  0  0
   -0.8960   -0.9712   -1.6357 H   0  0  0  0  0  0  0  0  0  0  0  0
   -2.4456   -0.0242   -0.5562 O   0  0  0  0  0  0  0  0  0  0  0  0
  1  2  3  0  0  0  0
  3  4  1  0  0  0  0
  3  8  1  0  0  0  0
  4  6  1  0  0  0  0
  5  4  1  0  0  0  0
  6 10  1  0  0  0  0
  6  7  1  0  0  0  0
  8 10  1  0  0  0  0
  9  8  1  0  0  0  0
M  RAD  4   3   3   4   2   6   2   8   2
M  END
