Coordinates from ORCA-job Furan-3-N2+-scan-d09-169-n800
 OpenBabel09191814033D

 10  9  0  0  0  0  0  0  0  0999 V2000
   10.0689    5.4517    4.8183 N   0  0  0  0  0  0  0  0  0  0  0  0
   10.9695    5.8611    5.3115 N   0  0  0  0  0  0  0  0  0  0  0  0
   -3.1698   -1.3536   -2.1115 C   0  0  0  0  0  0  0  0  0  0  0  0
   -4.2958   -0.5839   -2.0023 C   0  0  0  0  0  0  0  0  0  0  0  0
   -5.3305   -0.7514   -2.2732 H   0  0  0  0  0  0  0  0  0  0  0  0
   -3.8506    0.0995   -0.8682 C   0  0  0  0  0  0  0  0  0  0  0  0
   -4.4487    0.4730   -0.0421 H   0  0  0  0  0  0  0  0  0  0  0  0
   -2.0154   -0.8630   -1.5376 C   0  0  0  0  0  0  0  0  0  0  0  0
   -0.9524   -1.0092   -1.6759 H   0  0  0  0  0  0  0  0  0  0  0  0
   -2.4893   -0.0501   -0.5888 O   0  0  0  0  0  0  0  0  0  0  0  0
  1  2  3  0  0  0  0
  3  4  1  0  0  0  0
  3  8  1  0  0  0  0
  4  6  1  0  0  0  0
  5  4  1  0  0  0  0
  6 10  1  0  0  0  0
  6  7  1  0  0  0  0
  8 10  1  0  0  0  0
  9  8  1  0  0  0  0
M  RAD  4   3   3   4   2   6   2   8   2
M  END
