Coordinates from ORCA-job Furan-3-N2+-scan-d09-169-n800
 OpenBabel09191814033D

 10  9  0  0  0  0  0  0  0  0999 V2000
    6.6711    3.8062    3.1257 N   0  0  0  0  0  0  0  0  0  0  0  0
    7.5701    4.2371    3.6035 N   0  0  0  0  0  0  0  0  0  0  0  0
   -2.0877   -0.8837   -1.6709 C   0  0  0  0  0  0  0  0  0  0  0  0
   -3.3299   -0.3107   -1.7051 C   0  0  0  0  0  0  0  0  0  0  0  0
   -4.2780   -0.6338   -2.1160 H   0  0  0  0  0  0  0  0  0  0  0  0
   -3.1572    0.3958   -0.5125 C   0  0  0  0  0  0  0  0  0  0  0  0
   -3.9124    0.6381    0.2295 H   0  0  0  0  0  0  0  0  0  0  0  0
   -1.1164   -0.2325   -0.9391 C   0  0  0  0  0  0  0  0  0  0  0  0
   -0.0350   -0.2012   -0.9319 H   0  0  0  0  0  0  0  0  0  0  0  0
   -1.8387    0.4587   -0.0529 O   0  0  0  0  0  0  0  0  0  0  0  0
  1  2  3  0  0  0  0
  3  8  1  0  0  0  0
  4  3  1  0  0  0  0
  4  6  1  0  0  0  0
  5  4  1  0  0  0  0
  6 10  1  0  0  0  0
  6  7  1  0  0  0  0
  8  9  1  0  0  0  0
  8 10  1  0  0  0  0
M  RAD  4   3   3   4   2   6   2   8   2
M  END
