Coordinates from ORCA-job Furan-3-N2+-scan-d09-169-n800
 OpenBabel09191814033D

 10  9  0  0  0  0  0  0  0  0999 V2000
    9.8487    5.3489    4.7116 N   0  0  0  0  0  0  0  0  0  0  0  0
   10.7504    5.7590    5.2024 N   0  0  0  0  0  0  0  0  0  0  0  0
   -3.1045   -1.3245   -2.0864 C   0  0  0  0  0  0  0  0  0  0  0  0
   -4.2357   -0.5618   -1.9830 C   0  0  0  0  0  0  0  0  0  0  0  0
   -5.2674   -0.7342   -2.2622 H   0  0  0  0  0  0  0  0  0  0  0  0
   -3.8031    0.1201   -0.8430 C   0  0  0  0  0  0  0  0  0  0  0  0
   -4.4096    0.4869   -0.0201 H   0  0  0  0  0  0  0  0  0  0  0  0
   -1.9573   -0.8292   -1.5022 C   0  0  0  0  0  0  0  0  0  0  0  0
   -0.8925   -0.9686   -1.6330 H   0  0  0  0  0  0  0  0  0  0  0  0
   -2.4430   -0.0225   -0.5540 O   0  0  0  0  0  0  0  0  0  0  0  0
  1  2  3  0  0  0  0
  3  4  1  0  0  0  0
  3  8  1  0  0  0  0
  4  6  1  0  0  0  0
  5  4  1  0  0  0  0
  6 10  1  0  0  0  0
  6  7  1  0  0  0  0
  8 10  1  0  0  0  0
  9  8  1  0  0  0  0
M  RAD  4   3   3   4   2   6   2   8   2
M  END
