Coordinates from ORCA-job Furan-3-N2+-scan-d09-169-n800
 OpenBabel09191814033D

 10  9  0  0  0  0  0  0  0  0999 V2000
    9.9523    5.3974    4.7614 N   0  0  0  0  0  0  0  0  0  0  0  0
   10.8532    5.8069    5.2542 N   0  0  0  0  0  0  0  0  0  0  0  0
   -3.1354   -1.3383   -2.0982 C   0  0  0  0  0  0  0  0  0  0  0  0
   -4.2640   -0.5722   -1.9920 C   0  0  0  0  0  0  0  0  0  0  0  0
   -5.2972   -0.7421   -2.2671 H   0  0  0  0  0  0  0  0  0  0  0  0
   -3.8253    0.1105   -0.8549 C   0  0  0  0  0  0  0  0  0  0  0  0
   -4.4277    0.4806   -0.0304 H   0  0  0  0  0  0  0  0  0  0  0  0
   -1.9847   -0.8453   -1.5190 C   0  0  0  0  0  0  0  0  0  0  0  0
   -0.9207   -0.9880   -1.6535 H   0  0  0  0  0  0  0  0  0  0  0  0
   -2.4646   -0.0355   -0.5705 O   0  0  0  0  0  0  0  0  0  0  0  0
  1  2  3  0  0  0  0
  3  4  1  0  0  0  0
  3  8  1  0  0  0  0
  4  6  1  0  0  0  0
  5  4  1  0  0  0  0
  6 10  1  0  0  0  0
  6  7  1  0  0  0  0
  8 10  1  0  0  0  0
  9  8  1  0  0  0  0
M  RAD  4   3   3   4   2   6   2   8   2
M  END
