Coordinates from ORCA-job Furan-3-N2+-scan-d09-169-n800
 OpenBabel09191814033D

 10  9  0  0  0  0  0  0  0  0999 V2000
    4.4576    2.7232    2.0197 N   0  0  0  0  0  0  0  0  0  0  0  0
    5.3427    3.1856    2.4937 N   0  0  0  0  0  0  0  0  0  0  0  0
   -1.3877   -0.5610   -1.3596 C   0  0  0  0  0  0  0  0  0  0  0  0
   -2.6782   -0.1288   -1.5011 C   0  0  0  0  0  0  0  0  0  0  0  0
   -3.5452   -0.5501   -1.9940 H   0  0  0  0  0  0  0  0  0  0  0  0
   -2.6889    0.5775   -0.2959 C   0  0  0  0  0  0  0  0  0  0  0  0
   -3.5276    0.7253    0.3780 H   0  0  0  0  0  0  0  0  0  0  0  0
   -0.5613    0.1844   -0.5443 C   0  0  0  0  0  0  0  0  0  0  0  0
    0.5050    0.3376   -0.4436 H   0  0  0  0  0  0  0  0  0  0  0  0
   -1.4306    0.7804    0.2772 O   0  0  0  0  0  0  0  0  0  0  0  0
  1  2  3  0  0  0  0
  3  8  1  0  0  0  0
  4  3  1  0  0  0  0
  4  6  1  0  0  0  0
  5  4  1  0  0  0  0
  6 10  1  0  0  0  0
  6  7  1  0  0  0  0
  8  9  1  0  0  0  0
  8 10  1  0  0  0  0
M  RAD  4   3   3   4   2   6   2   8   2
M  END
