Coordinates from ORCA-job Furan-3-N2+-scan-d09-169-n800
 OpenBabel09191814033D

 10  9  0  0  0  0  0  0  0  0999 V2000
    6.9204    3.9277    3.2532 N   0  0  0  0  0  0  0  0  0  0  0  0
    7.8201    4.3574    3.7305 N   0  0  0  0  0  0  0  0  0  0  0  0
   -2.1695   -0.9214   -1.7044 C   0  0  0  0  0  0  0  0  0  0  0  0
   -3.4042   -0.3320   -1.7256 C   0  0  0  0  0  0  0  0  0  0  0  0
   -4.3616   -0.6438   -2.1235 H   0  0  0  0  0  0  0  0  0  0  0  0
   -3.2073    0.3763   -0.5377 C   0  0  0  0  0  0  0  0  0  0  0  0
   -3.9501    0.6311    0.2127 H   0  0  0  0  0  0  0  0  0  0  0  0
   -1.1806   -0.2808   -0.9871 C   0  0  0  0  0  0  0  0  0  0  0  0
   -0.0988   -0.2637   -0.9934 H   0  0  0  0  0  0  0  0  0  0  0  0
   -1.8826    0.4231   -0.0946 O   0  0  0  0  0  0  0  0  0  0  0  0
  1  2  3  0  0  0  0
  3  8  1  0  0  0  0
  4  3  1  0  0  0  0
  4  6  1  0  0  0  0
  5  4  1  0  0  0  0
  6 10  1  0  0  0  0
  6  7  1  0  0  0  0
  8 10  1  0  0  0  0
  9  8  1  0  0  0  0
M  RAD  4   3   3   4   2   6   2   8   2
M  END
