Coordinates from ORCA-job Furan-3-N2+-scan-d09-169-n800
 OpenBabel09191814033D

 10  9  0  0  0  0  0  0  0  0999 V2000
    7.5329    4.2244    3.5668 N   0  0  0  0  0  0  0  0  0  0  0  0
    8.4345    4.6515    4.0428 N   0  0  0  0  0  0  0  0  0  0  0  0
   -2.3695   -1.0130   -1.7840 C   0  0  0  0  0  0  0  0  0  0  0  0
   -3.5861   -0.3869   -1.7739 C   0  0  0  0  0  0  0  0  0  0  0  0
   -4.5644   -0.6737   -2.1384 H   0  0  0  0  0  0  0  0  0  0  0  0
   -3.3306    0.3276   -0.6011 C   0  0  0  0  0  0  0  0  0  0  0  0
   -4.0414    0.6136    0.1688 H   0  0  0  0  0  0  0  0  0  0  0  0
   -1.3393   -0.3960   -1.1054 C   0  0  0  0  0  0  0  0  0  0  0  0
   -0.2583   -0.4121   -1.1459 H   0  0  0  0  0  0  0  0  0  0  0  0
   -1.9919    0.3386   -0.1997 O   0  0  0  0  0  0  0  0  0  0  0  0
  1  2  3  0  0  0  0
  3  4  1  0  0  0  0
  3  8  1  0  0  0  0
  4  6  1  0  0  0  0
  5  4  1  0  0  0  0
  6 10  1  0  0  0  0
  6  7  1  0  0  0  0
  8 10  1  0  0  0  0
  9  8  1  0  0  0  0
M  RAD  4   3   3   4   2   6   2   8   2
M  END
