Coordinates from ORCA-job Furan-3-N2+-scan-d09-169-n800
 OpenBabel09191814033D

 10  9  0  0  0  0  0  0  0  0999 V2000
    5.2119    3.0831    2.4018 N   0  0  0  0  0  0  0  0  0  0  0  0
    6.0949    3.5476    2.8777 N   0  0  0  0  0  0  0  0  0  0  0  0
   -1.6271   -0.6762   -1.4654 C   0  0  0  0  0  0  0  0  0  0  0  0
   -2.9052   -0.1985   -1.5663 C   0  0  0  0  0  0  0  0  0  0  0  0
   -3.8039   -0.5923   -2.0240 H   0  0  0  0  0  0  0  0  0  0  0  0
   -2.8476    0.5191   -0.3691 C   0  0  0  0  0  0  0  0  0  0  0  0
   -3.6561    0.7040    0.3321 H   0  0  0  0  0  0  0  0  0  0  0  0
   -0.7459    0.0457   -0.6876 C   0  0  0  0  0  0  0  0  0  0  0  0
    0.3282    0.1604   -0.6264 H   0  0  0  0  0  0  0  0  0  0  0  0
   -1.5633    0.6810    0.1574 O   0  0  0  0  0  0  0  0  0  0  0  0
  1  2  3  0  0  0  0
  3  8  1  0  0  0  0
  4  3  1  0  0  0  0
  4  6  1  0  0  0  0
  5  4  1  0  0  0  0
  6 10  1  0  0  0  0
  6  7  1  0  0  0  0
  8  9  1  0  0  0  0
  8 10  1  0  0  0  0
M  RAD  4   3   3   4   2   6   2   8   2
M  END
