Coordinates from ORCA-job Furan-3-N2+-scan-d09-169-n800
 OpenBabel09191814033D

 10  9  0  0  0  0  0  0  0  0999 V2000
    2.6168    1.8680    0.6435 N   0  0  0  0  0  0  0  0  0  0  0  0
    3.6977    2.0209    0.8139 N   0  0  0  0  0  0  0  0  0  0  0  0
   -0.5348   -0.0933    0.0228 C   0  0  0  0  0  0  0  0  0  0  0  0
   -1.5137   -0.6342   -0.7663 C   0  0  0  0  0  0  0  0  0  0  0  0
   -1.8045   -1.6544   -0.9815 H   0  0  0  0  0  0  0  0  0  0  0  0
   -2.3859    0.4459   -0.6144 C   0  0  0  0  0  0  0  0  0  0  0  0
   -3.4711    0.4216   -0.5815 H   0  0  0  0  0  0  0  0  0  0  0  0
   -0.5297    1.2797    0.1608 C   0  0  0  0  0  0  0  0  0  0  0  0
    0.2174    2.0224    0.4072 H   0  0  0  0  0  0  0  0  0  0  0  0
   -1.8063    1.5974   -0.0745 O   0  0  0  0  0  0  0  0  0  0  0  0
  1  2  3  0  0  0  0
  3  8  1  0  0  0  0
  4  6  1  0  0  0  0
  4  3  1  0  0  0  0
  5  4  1  0  0  0  0
  6  7  1  0  0  0  0
  6 10  1  0  0  0  0
  8  9  1  0  0  0  0
 10  8  1  0  0  0  0
M  RAD  4   3   3   4   2   6   2   8   2
M  END
