Coordinates from ORCA-job Furan-3-N2+-scan-d09-169-n800
 OpenBabel09191814033D

 10  9  0  0  0  0  0  0  0  0999 V2000
    6.8955    3.9155    3.2404 N   0  0  0  0  0  0  0  0  0  0  0  0
    7.7951    4.3454    3.7178 N   0  0  0  0  0  0  0  0  0  0  0  0
   -2.1613   -0.9176   -1.7011 C   0  0  0  0  0  0  0  0  0  0  0  0
   -3.3968   -0.3299   -1.7235 C   0  0  0  0  0  0  0  0  0  0  0  0
   -4.3532   -0.6427   -2.1229 H   0  0  0  0  0  0  0  0  0  0  0  0
   -3.2023    0.3782   -0.5351 C   0  0  0  0  0  0  0  0  0  0  0  0
   -3.9463    0.6318    0.2144 H   0  0  0  0  0  0  0  0  0  0  0  0
   -1.1741   -0.2760   -0.9823 C   0  0  0  0  0  0  0  0  0  0  0  0
   -0.0924   -0.2574   -0.9872 H   0  0  0  0  0  0  0  0  0  0  0  0
   -1.8782    0.4267   -0.0903 O   0  0  0  0  0  0  0  0  0  0  0  0
  1  2  3  0  0  0  0
  3  8  1  0  0  0  0
  4  3  1  0  0  0  0
  4  6  1  0  0  0  0
  5  4  1  0  0  0  0
  6 10  1  0  0  0  0
  6  7  1  0  0  0  0
  8 10  1  0  0  0  0
  9  8  1  0  0  0  0
M  RAD  4   3   3   4   2   6   2   8   2
M  END
