Coordinates from ORCA-job Furan-3-N2+-scan-d09-169-n800
 OpenBabel09191814033D

 10  9  0  0  0  0  0  0  0  0999 V2000
    4.1147    2.5442    1.8274 N   0  0  0  0  0  0  0  0  0  0  0  0
    4.9991    3.0060    2.3031 N   0  0  0  0  0  0  0  0  0  0  0  0
   -1.2653   -0.4976   -1.3021 C   0  0  0  0  0  0  0  0  0  0  0  0
   -2.5632   -0.0999   -1.4739 C   0  0  0  0  0  0  0  0  0  0  0  0
   -3.4056   -0.5418   -1.9907 H   0  0  0  0  0  0  0  0  0  0  0  0
   -2.6235    0.5985   -0.2656 C   0  0  0  0  0  0  0  0  0  0  0  0
   -3.4826    0.7192    0.3878 H   0  0  0  0  0  0  0  0  0  0  0  0
   -0.4803    0.2655   -0.4624 C   0  0  0  0  0  0  0  0  0  0  0  0
    0.5786    0.4476   -0.3335 H   0  0  0  0  0  0  0  0  0  0  0  0
   -1.3861    0.8324    0.3401 O   0  0  0  0  0  0  0  0  0  0  0  0
  1  2  3  0  0  0  0
  3  8  1  0  0  0  0
  4  3  1  0  0  0  0
  4  6  1  0  0  0  0
  5  4  1  0  0  0  0
  6 10  1  0  0  0  0
  6  7  1  0  0  0  0
  8  9  1  0  0  0  0
  8 10  1  0  0  0  0
M  RAD  4   3   3   4   2   6   2   8   2
M  END
