Coordinates from ORCA-job Furan-3-N2+-scan-d09-169-n800
 OpenBabel09191814033D

 10  9  0  0  0  0  0  0  0  0999 V2000
    2.3173    1.0005    0.2745 N   0  0  0  0  0  0  0  0  0  0  0  0
    3.4189    1.0727    0.3173 N   0  0  0  0  0  0  0  0  0  0  0  0
   -0.3819    0.5165    0.2540 C   0  0  0  0  0  0  0  0  0  0  0  0
   -0.9797   -0.3193   -0.6565 C   0  0  0  0  0  0  0  0  0  0  0  0
   -0.8148   -1.3529   -0.9290 H   0  0  0  0  0  0  0  0  0  0  0  0
   -2.1989    0.3480   -0.6487 C   0  0  0  0  0  0  0  0  0  0  0  0
   -3.1887   -0.0524   -0.8395 H   0  0  0  0  0  0  0  0  0  0  0  0
   -0.9200    1.7630    0.4351 C   0  0  0  0  0  0  0  0  0  0  0  0
   -0.5909    2.7145    0.8264 H   0  0  0  0  0  0  0  0  0  0  0  0
   -2.1755    1.5834   -0.0035 O   0  0  0  0  0  0  0  0  0  0  0  0
  1  2  3  0  0  0  0
  3  8  1  0  0  0  0
  4  6  1  0  0  0  0
  4  3  1  0  0  0  0
  5  4  1  0  0  0  0
  6 10  1  0  0  0  0
  7  6  1  0  0  0  0
  8  9  1  0  0  0  0
 10  8  1  0  0  0  0
M  RAD  4   3   3   4   2   6   2   8   2
M  END
