Coordinates from ORCA-job Furan-3-N2+-scan-d09-169-n800
 OpenBabel09191814033D

 10 10  0  0  0  0  0  0  0  0999 V2000
    1.7406    0.8219    0.1957 N   0  0  0  0  0  0  0  0  0  0  0  0
    2.8386    0.8119    0.3114 N   0  0  0  0  0  0  0  0  0  0  0  0
   -0.1088    0.8081   -0.0128 C   0  0  0  0  0  0  0  0  0  0  0  0
   -0.8154   -0.2715   -0.5669 C   0  0  0  0  0  0  0  0  0  0  0  0
   -0.4883   -1.2246   -0.9520 H   0  0  0  0  0  0  0  0  0  0  0  0
   -2.0787    0.2459   -0.4772 C   0  0  0  0  0  0  0  0  0  0  0  0
   -3.0432   -0.1508   -0.7583 H   0  0  0  0  0  0  0  0  0  0  0  0
   -0.8286    1.8832    0.3833 C   0  0  0  0  0  0  0  0  0  0  0  0
   -0.6434    2.8471    0.8294 H   0  0  0  0  0  0  0  0  0  0  0  0
   -2.0868    1.5028    0.0777 O   0  0  0  0  0  0  0  0  0  0  0  0
  1  2  1  0  0  0  0
  3  1  1  0  0  0  0
  3  8  2  0  0  0  0
  4  6  2  0  0  0  0
  4  3  1  0  0  0  0
  5  4  1  0  0  0  0
  6 10  1  0  0  0  0
  7  6  1  0  0  0  0
  8  9  1  0  0  0  0
 10  8  1  0  0  0  0
M  RAD  2   1   2   2   3
M  END
