Coordinates from ORCA-job Furan-3-N2+-scan-d09-169-n800
 OpenBabel09191814033D

 10  9  0  0  0  0  0  0  0  0999 V2000
    2.6161    2.0468    0.6957 N   0  0  0  0  0  0  0  0  0  0  0  0
    3.6701    2.3066    0.9004 N   0  0  0  0  0  0  0  0  0  0  0  0
   -0.5829   -0.2507   -0.0249 C   0  0  0  0  0  0  0  0  0  0  0  0
   -1.6370   -0.6794   -0.7858 C   0  0  0  0  0  0  0  0  0  0  0  0
   -2.0409   -1.6615   -0.9954 H   0  0  0  0  0  0  0  0  0  0  0  0
   -2.3843    0.4861   -0.6038 C   0  0  0  0  0  0  0  0  0  0  0  0
   -3.4645    0.5777   -0.5385 H   0  0  0  0  0  0  0  0  0  0  0  0
   -0.4265    1.1128    0.1165 C   0  0  0  0  0  0  0  0  0  0  0  0
    0.4048    1.7699    0.3437 H   0  0  0  0  0  0  0  0  0  0  0  0
   -1.6691    1.5657   -0.0778 O   0  0  0  0  0  0  0  0  0  0  0  0
  1  2  3  0  0  0  0
  3  8  1  0  0  0  0
  4  6  1  0  0  0  0
  4  3  1  0  0  0  0
  5  4  1  0  0  0  0
  6  7  1  0  0  0  0
  6 10  1  0  0  0  0
  8  9  1  0  0  0  0
 10  8  1  0  0  0  0
M  RAD  4   3   3   4   2   6   2   8   2
M  END
