Coordinates from ORCA-job Furan-3-N2+-scan-d09-169-n800
 OpenBabel09191814033D

 10  9  0  0  0  0  0  0  0  0999 V2000
    4.5915    2.7900    2.0911 N   0  0  0  0  0  0  0  0  0  0  0  0
    5.4760    3.2530    2.5654 N   0  0  0  0  0  0  0  0  0  0  0  0
   -1.4333   -0.5838   -1.3802 C   0  0  0  0  0  0  0  0  0  0  0  0
   -2.7210   -0.1405   -1.5120 C   0  0  0  0  0  0  0  0  0  0  0  0
   -3.5958   -0.5551   -1.9966 H   0  0  0  0  0  0  0  0  0  0  0  0
   -2.7153    0.5684   -0.3083 C   0  0  0  0  0  0  0  0  0  0  0  0
   -3.5471    0.7251    0.3723 H   0  0  0  0  0  0  0  0  0  0  0  0
   -0.5935    0.1559   -0.5735 C   0  0  0  0  0  0  0  0  0  0  0  0
    0.4750    0.2997   -0.4821 H   0  0  0  0  0  0  0  0  0  0  0  0
   -1.4506    0.7613    0.2539 O   0  0  0  0  0  0  0  0  0  0  0  0
  1  2  3  0  0  0  0
  3  8  1  0  0  0  0
  4  3  1  0  0  0  0
  4  6  1  0  0  0  0
  5  4  1  0  0  0  0
  6 10  1  0  0  0  0
  6  7  1  0  0  0  0
  8  9  1  0  0  0  0
  8 10  1  0  0  0  0
M  RAD  4   3   3   4   2   6   2   8   2
M  END
