Coordinates from ORCA-job Furan-3-N2+-scan-d09-169-n800
 OpenBabel09191814033D

 10  9  0  0  0  0  0  0  0  0999 V2000
    7.0201    3.9762    3.3043 N   0  0  0  0  0  0  0  0  0  0  0  0
    7.9202    4.4055    3.7814 N   0  0  0  0  0  0  0  0  0  0  0  0
   -2.2022   -0.9365   -1.7177 C   0  0  0  0  0  0  0  0  0  0  0  0
   -3.4339   -0.3406   -1.7336 C   0  0  0  0  0  0  0  0  0  0  0  0
   -4.3949   -0.6480   -2.1262 H   0  0  0  0  0  0  0  0  0  0  0  0
   -3.2273    0.3684   -0.5478 C   0  0  0  0  0  0  0  0  0  0  0  0
   -3.9649    0.6284    0.2059 H   0  0  0  0  0  0  0  0  0  0  0  0
   -1.2064   -0.3000   -1.0064 C   0  0  0  0  0  0  0  0  0  0  0  0
   -0.1245   -0.2885   -1.0183 H   0  0  0  0  0  0  0  0  0  0  0  0
   -1.9001    0.4091   -0.1115 O   0  0  0  0  0  0  0  0  0  0  0  0
  1  2  3  0  0  0  0
  3  8  1  0  0  0  0
  4  3  1  0  0  0  0
  4  6  1  0  0  0  0
  5  4  1  0  0  0  0
  6 10  1  0  0  0  0
  6  7  1  0  0  0  0
  8 10  1  0  0  0  0
  9  8  1  0  0  0  0
M  RAD  4   3   3   4   2   6   2   8   2
M  END
