Coordinates from ORCA-job Furan-3-N2+-scan-d09-169-n800
 OpenBabel09191814033D

 10  9  0  0  0  0  0  0  0  0999 V2000
    5.1612    3.0587    2.3758 N   0  0  0  0  0  0  0  0  0  0  0  0
    6.0427    3.5243    2.8533 N   0  0  0  0  0  0  0  0  0  0  0  0
   -1.6117   -0.6691   -1.4586 C   0  0  0  0  0  0  0  0  0  0  0  0
   -2.8905   -0.1936   -1.5615 C   0  0  0  0  0  0  0  0  0  0  0  0
   -3.7877   -0.5889   -2.0208 H   0  0  0  0  0  0  0  0  0  0  0  0
   -2.8362    0.5236   -0.3639 C   0  0  0  0  0  0  0  0  0  0  0  0
   -3.6462    0.7067    0.3360 H   0  0  0  0  0  0  0  0  0  0  0  0
   -0.7331    0.0541   -0.6790 C   0  0  0  0  0  0  0  0  0  0  0  0
    0.3406    0.1708   -0.6160 H   0  0  0  0  0  0  0  0  0  0  0  0
   -1.5531    0.6876    0.1649 O   0  0  0  0  0  0  0  0  0  0  0  0
  1  2  3  0  0  0  0
  3  8  1  0  0  0  0
  4  3  1  0  0  0  0
  4  6  1  0  0  0  0
  5  4  1  0  0  0  0
  6 10  1  0  0  0  0
  6  7  1  0  0  0  0
  8  9  1  0  0  0  0
  8 10  1  0  0  0  0
M  RAD  4   3   3   4   2   6   2   8   2
M  END
