Coordinates from ORCA-job Furan-3-N2+-scan-d09-169-n800
 OpenBabel09191814033D

 10  9  0  0  0  0  0  0  0  0999 V2000
    8.0532    4.4828    3.8310 N   0  0  0  0  0  0  0  0  0  0  0  0
    8.9555    4.9114    4.3045 N   0  0  0  0  0  0  0  0  0  0  0  0
   -2.5449   -1.0848   -1.8602 C   0  0  0  0  0  0  0  0  0  0  0  0
   -3.7369   -0.4143   -1.8214 C   0  0  0  0  0  0  0  0  0  0  0  0
   -4.7325   -0.6628   -2.1665 H   0  0  0  0  0  0  0  0  0  0  0  0
   -3.4307    0.2834   -0.6505 C   0  0  0  0  0  0  0  0  0  0  0  0
   -4.1142    0.5906    0.1357 H   0  0  0  0  0  0  0  0  0  0  0  0
   -1.4787   -0.5104   -1.2003 C   0  0  0  0  0  0  0  0  0  0  0  0
   -0.4001   -0.5643   -1.2650 H   0  0  0  0  0  0  0  0  0  0  0  0
   -2.0846    0.2425   -0.2773 O   0  0  0  0  0  0  0  0  0  0  0  0
  1  2  3  0  0  0  0
  3  4  1  0  0  0  0
  3  8  1  0  0  0  0
  4  6  1  0  0  0  0
  5  4  1  0  0  0  0
  6 10  1  0  0  0  0
  6  7  1  0  0  0  0
  8 10  1  0  0  0  0
  9  8  1  0  0  0  0
M  RAD  4   3   3   4   2   6   2   8   2
M  END
