Coordinates from ORCA-job Furan-3-N2+-scan-d09-169-n800
 OpenBabel09191814033D

 10  9  0  0  0  0  0  0  0  0999 V2000
    7.0081    3.9701    3.2981 N   0  0  0  0  0  0  0  0  0  0  0  0
    7.9081    4.3995    3.7752 N   0  0  0  0  0  0  0  0  0  0  0  0
   -2.1981   -0.9340   -1.7158 C   0  0  0  0  0  0  0  0  0  0  0  0
   -3.4305   -0.3399   -1.7326 C   0  0  0  0  0  0  0  0  0  0  0  0
   -4.3909   -0.6484   -2.1258 H   0  0  0  0  0  0  0  0  0  0  0  0
   -3.2252    0.3692   -0.5467 C   0  0  0  0  0  0  0  0  0  0  0  0
   -3.9634    0.6290    0.2065 H   0  0  0  0  0  0  0  0  0  0  0  0
   -1.2029   -0.2974   -1.0040 C   0  0  0  0  0  0  0  0  0  0  0  0
   -0.1211   -0.2851   -1.0155 H   0  0  0  0  0  0  0  0  0  0  0  0
   -1.8984    0.4109   -0.1094 O   0  0  0  0  0  0  0  0  0  0  0  0
  1  2  3  0  0  0  0
  3  8  1  0  0  0  0
  4  3  1  0  0  0  0
  4  6  1  0  0  0  0
  5  4  1  0  0  0  0
  6 10  1  0  0  0  0
  6  7  1  0  0  0  0
  8 10  1  0  0  0  0
  9  8  1  0  0  0  0
M  RAD  4   3   3   4   2   6   2   8   2
M  END
