Coordinates from ORCA-job Furan-3-N2+-scan-d09-169-n800
 OpenBabel09191814033D

 10  9  0  0  0  0  0  0  0  0999 V2000
    4.7032    2.8439    2.1484 N   0  0  0  0  0  0  0  0  0  0  0  0
    5.5866    3.3079    2.6240 N   0  0  0  0  0  0  0  0  0  0  0  0
   -1.4700   -0.6019   -1.3965 C   0  0  0  0  0  0  0  0  0  0  0  0
   -2.7556   -0.1506   -1.5211 C   0  0  0  0  0  0  0  0  0  0  0  0
   -3.6361   -0.5604   -1.9996 H   0  0  0  0  0  0  0  0  0  0  0  0
   -2.7380    0.5604   -0.3187 C   0  0  0  0  0  0  0  0  0  0  0  0
   -3.5645    0.7237    0.3667 H   0  0  0  0  0  0  0  0  0  0  0  0
   -0.6206    0.1338   -0.5964 C   0  0  0  0  0  0  0  0  0  0  0  0
    0.4494    0.2709   -0.5119 H   0  0  0  0  0  0  0  0  0  0  0  0
   -1.4685    0.7462    0.2353 O   0  0  0  0  0  0  0  0  0  0  0  0
  1  2  3  0  0  0  0
  3  8  1  0  0  0  0
  4  3  1  0  0  0  0
  4  6  1  0  0  0  0
  5  4  1  0  0  0  0
  6 10  1  0  0  0  0
  6  7  1  0  0  0  0
  8  9  1  0  0  0  0
  8 10  1  0  0  0  0
M  RAD  4   3   3   4   2   6   2   8   2
M  END
