Coordinates from ORCA-job Furan-3-N2+-scan-d09-169-n800
 OpenBabel09191814033D

 10  9  0  0  0  0  0  0  0  0999 V2000
    2.8759    1.9015    1.1328 N   0  0  0  0  0  0  0  0  0  0  0  0
    3.7746    2.3443    1.5984 N   0  0  0  0  0  0  0  0  0  0  0  0
   -0.8271   -0.2582   -1.0815 C   0  0  0  0  0  0  0  0  0  0  0  0
   -2.1384    0.0077   -1.3695 C   0  0  0  0  0  0  0  0  0  0  0  0
   -2.8777   -0.5066   -1.9701 H   0  0  0  0  0  0  0  0  0  0  0  0
   -2.3833    0.6666   -0.1631 C   0  0  0  0  0  0  0  0  0  0  0  0
   -3.3070    0.6841    0.4076 H   0  0  0  0  0  0  0  0  0  0  0  0
   -0.2049    0.5644   -0.1625 C   0  0  0  0  0  0  0  0  0  0  0  0
    0.8120    0.8579    0.0789 H   0  0  0  0  0  0  0  0  0  0  0  0
   -1.2383    1.0124    0.5590 O   0  0  0  0  0  0  0  0  0  0  0  0
  1  2  3  0  0  0  0
  3  8  1  0  0  0  0
  4  3  1  0  0  0  0
  4  6  1  0  0  0  0
  5  4  1  0  0  0  0
  6  7  1  0  0  0  0
  6 10  1  0  0  0  0
  8  9  1  0  0  0  0
  8 10  1  0  0  0  0
M  RAD  4   3   3   4   2   6   2   8   2
M  END
