Coordinates from ORCA-job Furan-3-N2+-scan-d09-169-n800
 OpenBabel09191814033D

 10 10  0  0  0  0  0  0  0  0999 V2000
    1.4820    0.8175    0.1652 N   0  0  0  0  0  0  0  0  0  0  0  0
    2.5884    0.8030    0.2798 N   0  0  0  0  0  0  0  0  0  0  0  0
    0.0304    0.8082    0.0024 C   0  0  0  0  0  0  0  0  0  0  0  0
   -0.7620   -0.2506   -0.5516 C   0  0  0  0  0  0  0  0  0  0  0  0
   -0.4375   -1.2053   -0.9376 H   0  0  0  0  0  0  0  0  0  0  0  0
   -2.0223    0.2454   -0.4713 C   0  0  0  0  0  0  0  0  0  0  0  0
   -2.9905   -0.1426   -0.7491 H   0  0  0  0  0  0  0  0  0  0  0  0
   -0.7801    1.8619    0.3795 C   0  0  0  0  0  0  0  0  0  0  0  0
   -0.6002    2.8293    0.8266 H   0  0  0  0  0  0  0  0  0  0  0  0
   -2.0223    1.5071    0.0862 O   0  0  0  0  0  0  0  0  0  0  0  0
  1  2  1  0  0  0  0
  3  1  1  0  0  0  0
  3  8  2  0  0  0  0
  4  6  2  0  0  0  0
  4  3  1  0  0  0  0
  5  4  1  0  0  0  0
  6 10  1  0  0  0  0
  7  6  1  0  0  0  0
  8  9  1  0  0  0  0
 10  8  1  0  0  0  0
M  RAD  2   1   2   2   3
M  END
