Coordinates from ORCA-job Furan-3-N2+-scan-d09-169-n800
 OpenBabel09191814033D

 10  9  0  0  0  0  0  0  0  0999 V2000
    5.7730    3.3601    2.6718 N   0  0  0  0  0  0  0  0  0  0  0  0
    6.6636    3.8037    3.1535 N   0  0  0  0  0  0  0  0  0  0  0  0
   -1.7970   -0.7530   -1.5426 C   0  0  0  0  0  0  0  0  0  0  0  0
   -3.0647   -0.2441   -1.6225 C   0  0  0  0  0  0  0  0  0  0  0  0
   -3.9796   -0.6148   -2.0670 H   0  0  0  0  0  0  0  0  0  0  0  0
   -2.9716    0.4693   -0.4250 C   0  0  0  0  0  0  0  0  0  0  0  0
   -3.7646    0.6718    0.2890 H   0  0  0  0  0  0  0  0  0  0  0  0
   -0.8875   -0.0536   -0.7768 C   0  0  0  0  0  0  0  0  0  0  0  0
    0.1899    0.0353   -0.7321 H   0  0  0  0  0  0  0  0  0  0  0  0
   -1.6757    0.5993    0.0818 O   0  0  0  0  0  0  0  0  0  0  0  0
  1  2  3  0  0  0  0
  3  8  1  0  0  0  0
  4  3  1  0  0  0  0
  4  6  1  0  0  0  0
  5  4  1  0  0  0  0
  6 10  1  0  0  0  0
  6  7  1  0  0  0  0
  8  9  1  0  0  0  0
  8 10  1  0  0  0  0
M  RAD  4   3   3   4   2   6   2   8   2
M  END
