Coordinates from ORCA-job Furan-3-N2+-scan-d09-169-n800
 OpenBabel09191814033D

 10  9  0  0  0  0  0  0  0  0999 V2000
    5.5983    3.2685    2.5862 N   0  0  0  0  0  0  0  0  0  0  0  0
    6.4843    3.7226    3.0666 N   0  0  0  0  0  0  0  0  0  0  0  0
   -1.7416   -0.7287   -1.5168 C   0  0  0  0  0  0  0  0  0  0  0  0
   -3.0140   -0.2328   -1.6042 C   0  0  0  0  0  0  0  0  0  0  0  0
   -3.9229   -0.6140   -2.0523 H   0  0  0  0  0  0  0  0  0  0  0  0
   -2.9340    0.4846   -0.4083 C   0  0  0  0  0  0  0  0  0  0  0  0
   -3.7325    0.6809    0.3013 H   0  0  0  0  0  0  0  0  0  0  0  0
   -0.8430   -0.0181   -0.7484 C   0  0  0  0  0  0  0  0  0  0  0  0
    0.2332    0.0819   -0.6986 H   0  0  0  0  0  0  0  0  0  0  0  0
   -1.6419    0.6291    0.1045 O   0  0  0  0  0  0  0  0  0  0  0  0
  1  2  3  0  0  0  0
  3  8  1  0  0  0  0
  4  3  1  0  0  0  0
  4  6  1  0  0  0  0
  5  4  1  0  0  0  0
  6 10  1  0  0  0  0
  6  7  1  0  0  0  0
  8  9  1  0  0  0  0
  8 10  1  0  0  0  0
M  RAD  4   3   3   4   2   6   2   8   2
M  END
