Coordinates from ORCA-job Furan-3-N2+-scan-d09-169-n800
 OpenBabel09191814033D

 10  9  0  0  0  0  0  0  0  0999 V2000
    8.0158    4.4643    3.8121 N   0  0  0  0  0  0  0  0  0  0  0  0
    8.9180    4.8928    4.2858 N   0  0  0  0  0  0  0  0  0  0  0  0
   -2.5325   -1.0798   -1.8548 C   0  0  0  0  0  0  0  0  0  0  0  0
   -3.7262   -0.4123   -1.8179 C   0  0  0  0  0  0  0  0  0  0  0  0
   -4.7207   -0.6634   -2.1643 H   0  0  0  0  0  0  0  0  0  0  0  0
   -3.4235    0.2867   -0.6469 C   0  0  0  0  0  0  0  0  0  0  0  0
   -4.1088    0.5925    0.1383 H   0  0  0  0  0  0  0  0  0  0  0  0
   -1.4687   -0.5025   -1.1936 C   0  0  0  0  0  0  0  0  0  0  0  0
   -0.3899   -0.5537   -1.2568 H   0  0  0  0  0  0  0  0  0  0  0  0
   -2.0777    0.2493   -0.2718 O   0  0  0  0  0  0  0  0  0  0  0  0
  1  2  3  0  0  0  0
  3  4  1  0  0  0  0
  3  8  1  0  0  0  0
  4  6  1  0  0  0  0
  5  4  1  0  0  0  0
  6 10  1  0  0  0  0
  6  7  1  0  0  0  0
  8 10  1  0  0  0  0
  9  8  1  0  0  0  0
M  RAD  4   3   3   4   2   6   2   8   2
M  END
