Coordinates from ORCA-job Furan-3-N2+-scan-d09-169-n800
 OpenBabel09191814033D

 10  9  0  0  0  0  0  0  0  0999 V2000
    8.4038    4.6545    4.0074 N   0  0  0  0  0  0  0  0  0  0  0  0
    9.3068    5.0834    4.4794 N   0  0  0  0  0  0  0  0  0  0  0  0
   -2.6596   -1.1319   -1.9090 C   0  0  0  0  0  0  0  0  0  0  0  0
   -3.8365   -0.4364   -1.8533 C   0  0  0  0  0  0  0  0  0  0  0  0
   -4.8416   -0.6630   -2.1858 H   0  0  0  0  0  0  0  0  0  0  0  0
   -3.5003    0.2524   -0.6855 C   0  0  0  0  0  0  0  0  0  0  0  0
   -4.1667    0.5726    0.1102 H   0  0  0  0  0  0  0  0  0  0  0  0
   -1.5729   -0.5816   -1.2621 C   0  0  0  0  0  0  0  0  0  0  0  0
   -0.4967   -0.6583   -1.3412 H   0  0  0  0  0  0  0  0  0  0  0  0
   -2.1505    0.1823   -0.3300 O   0  0  0  0  0  0  0  0  0  0  0  0
  1  2  3  0  0  0  0
  3  4  1  0  0  0  0
  3  8  1  0  0  0  0
  4  6  1  0  0  0  0
  5  4  1  0  0  0  0
  6 10  1  0  0  0  0
  6  7  1  0  0  0  0
  8 10  1  0  0  0  0
  9  8  1  0  0  0  0
M  RAD  4   3   3   4   2   6   2   8   2
M  END
