Coordinates from ORCA-job Furan-3-N2+-scan-d09-169-n800
 OpenBabel09191814033D

 10  9  0  0  0  0  0  0  0  0999 V2000
    5.1734    3.0651    2.3826 N   0  0  0  0  0  0  0  0  0  0  0  0
    6.0560    3.5300    2.8591 N   0  0  0  0  0  0  0  0  0  0  0  0
   -1.6156   -0.6709   -1.4604 C   0  0  0  0  0  0  0  0  0  0  0  0
   -2.8942   -0.1948   -1.5627 C   0  0  0  0  0  0  0  0  0  0  0  0
   -3.7918   -0.5896   -2.0216 H   0  0  0  0  0  0  0  0  0  0  0  0
   -2.8390    0.5224   -0.3652 C   0  0  0  0  0  0  0  0  0  0  0  0
   -3.6486    0.7060    0.3351 H   0  0  0  0  0  0  0  0  0  0  0  0
   -0.7363    0.0519   -0.6812 C   0  0  0  0  0  0  0  0  0  0  0  0
    0.3376    0.1680   -0.6186 H   0  0  0  0  0  0  0  0  0  0  0  0
   -1.5555    0.6859    0.1630 O   0  0  0  0  0  0  0  0  0  0  0  0
  1  2  3  0  0  0  0
  3  8  1  0  0  0  0
  4  3  1  0  0  0  0
  4  6  1  0  0  0  0
  5  4  1  0  0  0  0
  6 10  1  0  0  0  0
  6  7  1  0  0  0  0
  8  9  1  0  0  0  0
  8 10  1  0  0  0  0
M  RAD  4   3   3   4   2   6   2   8   2
M  END
