Coordinates from ORCA-job Furan-3-N2+-scan-d09-169-n800
 OpenBabel09191814033D

 10  9  0  0  0  0  0  0  0  0999 V2000
    7.1448    4.0368    3.3682 N   0  0  0  0  0  0  0  0  0  0  0  0
    8.0452    4.4656    3.8451 N   0  0  0  0  0  0  0  0  0  0  0  0
   -2.2432   -0.9553   -1.7342 C   0  0  0  0  0  0  0  0  0  0  0  0
   -3.4711   -0.3516   -1.7435 C   0  0  0  0  0  0  0  0  0  0  0  0
   -4.4365   -0.6535   -2.1293 H   0  0  0  0  0  0  0  0  0  0  0  0
   -3.2523    0.3586   -0.5606 C   0  0  0  0  0  0  0  0  0  0  0  0
   -3.9834    0.6250    0.1972 H   0  0  0  0  0  0  0  0  0  0  0  0
   -1.2387   -0.3238   -1.0306 C   0  0  0  0  0  0  0  0  0  0  0  0
   -0.1569   -0.3194   -1.0494 H   0  0  0  0  0  0  0  0  0  0  0  0
   -1.9221    0.3916   -0.1328 O   0  0  0  0  0  0  0  0  0  0  0  0
  1  2  3  0  0  0  0
  3  8  1  0  0  0  0
  4  3  1  0  0  0  0
  4  6  1  0  0  0  0
  5  4  1  0  0  0  0
  6 10  1  0  0  0  0
  6  7  1  0  0  0  0
  8 10  1  0  0  0  0
  9  8  1  0  0  0  0
M  RAD  4   3   3   4   2   6   2   8   2
M  END
