Coordinates from ORCA-job Furan-3-N2+-scan-d09-169-n800
 OpenBabel09191814033D

 10  9  0  0  0  0  0  0  0  0999 V2000
    7.6697    4.2913    3.6368 N   0  0  0  0  0  0  0  0  0  0  0  0
    8.5717    4.7183    4.1123 N   0  0  0  0  0  0  0  0  0  0  0  0
   -2.4150   -1.0332   -1.8023 C   0  0  0  0  0  0  0  0  0  0  0  0
   -3.6262   -0.3972   -1.7853 C   0  0  0  0  0  0  0  0  0  0  0  0
   -4.6091   -0.6765   -2.1430 H   0  0  0  0  0  0  0  0  0  0  0  0
   -3.3575    0.3166   -0.6149 C   0  0  0  0  0  0  0  0  0  0  0  0
   -4.0609    0.6090    0.1592 H   0  0  0  0  0  0  0  0  0  0  0  0
   -1.3755   -0.4240   -1.1310 C   0  0  0  0  0  0  0  0  0  0  0  0
   -0.2950   -0.4472   -1.1797 H   0  0  0  0  0  0  0  0  0  0  0  0
   -2.0163    0.3170   -0.2220 O   0  0  0  0  0  0  0  0  0  0  0  0
  1  2  3  0  0  0  0
  3  4  1  0  0  0  0
  3  8  1  0  0  0  0
  4  6  1  0  0  0  0
  5  4  1  0  0  0  0
  6 10  1  0  0  0  0
  6  7  1  0  0  0  0
  8 10  1  0  0  0  0
  9  8  1  0  0  0  0
M  RAD  4   3   3   4   2   6   2   8   2
M  END
