Coordinates from ORCA-job Furan-3-N2+-scan-d09-169-n800
 OpenBabel09191814033D

 10  9  0  0  0  0  0  0  0  0999 V2000
    9.1255    5.0031    4.3696 N   0  0  0  0  0  0  0  0  0  0  0  0
   10.0328    5.4284    4.8364 N   0  0  0  0  0  0  0  0  0  0  0  0
   -2.8872   -1.2287   -2.0015 C   0  0  0  0  0  0  0  0  0  0  0  0
   -4.0384   -0.4940   -1.9183 C   0  0  0  0  0  0  0  0  0  0  0  0
   -5.0588   -0.6880   -2.2236 H   0  0  0  0  0  0  0  0  0  0  0  0
   -3.6491    0.1870   -0.7624 C   0  0  0  0  0  0  0  0  0  0  0  0
   -4.2835    0.5320    0.0489 H   0  0  0  0  0  0  0  0  0  0  0  0
   -1.7663   -0.7129   -1.3853 C   0  0  0  0  0  0  0  0  0  0  0  0
   -0.6956   -0.8258   -1.4920 H   0  0  0  0  0  0  0  0  0  0  0  0
   -2.2935    0.0729   -0.4418 O   0  0  0  0  0  0  0  0  0  0  0  0
  1  2  3  0  0  0  0
  3  4  1  0  0  0  0
  3  8  1  0  0  0  0
  4  6  1  0  0  0  0
  5  4  1  0  0  0  0
  6 10  1  0  0  0  0
  6  7  1  0  0  0  0
  8 10  1  0  0  0  0
  9  8  1  0  0  0  0
M  RAD  4   3   3   4   2   6   2   8   2
M  END
