Coordinates from ORCA-job Furan-3-N2+-scan-d09-169-n800
 OpenBabel09191814033D

 10  9  0  0  0  0  0  0  0  0999 V2000
    2.6169    1.7755    0.5984 N   0  0  0  0  0  0  0  0  0  0  0  0
    3.7066    1.9052    0.7281 N   0  0  0  0  0  0  0  0  0  0  0  0
   -0.5295   -0.0279    0.0800 C   0  0  0  0  0  0  0  0  0  0  0  0
   -1.4505   -0.6091   -0.7488 C   0  0  0  0  0  0  0  0  0  0  0  0
   -1.6891   -1.6405   -0.9748 H   0  0  0  0  0  0  0  0  0  0  0  0
   -2.3725    0.4340   -0.6367 C   0  0  0  0  0  0  0  0  0  0  0  0
   -3.4562    0.3650   -0.6510 H   0  0  0  0  0  0  0  0  0  0  0  0
   -0.5875    1.3437    0.2165 C   0  0  0  0  0  0  0  0  0  0  0  0
    0.1127    2.1200    0.4925 H   0  0  0  0  0  0  0  0  0  0  0  0
   -1.8650    1.6081   -0.0742 O   0  0  0  0  0  0  0  0  0  0  0  0
  1  2  3  0  0  0  0
  3  8  1  0  0  0  0
  4  6  1  0  0  0  0
  4  3  1  0  0  0  0
  5  4  1  0  0  0  0
  6 10  1  0  0  0  0
  7  6  1  0  0  0  0
  8  9  1  0  0  0  0
 10  8  1  0  0  0  0
M  RAD  4   3   3   4   2   6   2   8   2
M  END
