Coordinates from ORCA-job Furan-3-N2+-scan-d09-169-n800
 OpenBabel09191814033D

 10  9  0  0  0  0  0  0  0  0999 V2000
    2.6074    2.1920    0.7292 N   0  0  0  0  0  0  0  0  0  0  0  0
    3.6158    2.5843    0.9506 N   0  0  0  0  0  0  0  0  0  0  0  0
   -0.6390   -0.3949   -0.0533 C   0  0  0  0  0  0  0  0  0  0  0  0
   -1.7437   -0.7079   -0.7988 C   0  0  0  0  0  0  0  0  0  0  0  0
   -2.2499   -1.6418   -1.0067 H   0  0  0  0  0  0  0  0  0  0  0  0
   -2.3631    0.5275   -0.5995 C   0  0  0  0  0  0  0  0  0  0  0  0
   -3.4267    0.7311   -0.5190 H   0  0  0  0  0  0  0  0  0  0  0  0
   -0.3383    0.9430    0.0929 C   0  0  0  0  0  0  0  0  0  0  0  0
    0.5552    1.5182    0.3134 H   0  0  0  0  0  0  0  0  0  0  0  0
   -1.5316    1.5226   -0.0787 O   0  0  0  0  0  0  0  0  0  0  0  0
  1  2  3  0  0  0  0
  3  8  1  0  0  0  0
  4  6  1  0  0  0  0
  4  3  1  0  0  0  0
  5  4  1  0  0  0  0
  6  7  1  0  0  0  0
  6 10  1  0  0  0  0
  8  9  1  0  0  0  0
 10  8  1  0  0  0  0
M  RAD  4   3   3   4   2   6   2   8   2
M  END
