Coordinates from ORCA-job Furan-3-N2+-scan-d09-169-n800
 OpenBabel09191814033D

 10  9  0  0  0  0  0  0  0  0999 V2000
   10.0430    5.4397    4.8055 N   0  0  0  0  0  0  0  0  0  0  0  0
   10.9436    5.8490    5.2989 N   0  0  0  0  0  0  0  0  0  0  0  0
   -3.1622   -1.3502   -2.1085 C   0  0  0  0  0  0  0  0  0  0  0  0
   -4.2887   -0.5813   -2.0000 C   0  0  0  0  0  0  0  0  0  0  0  0
   -5.3232   -0.7493   -2.2718 H   0  0  0  0  0  0  0  0  0  0  0  0
   -3.8449    0.1020   -0.8652 C   0  0  0  0  0  0  0  0  0  0  0  0
   -4.4440    0.4747   -0.0395 H   0  0  0  0  0  0  0  0  0  0  0  0
   -2.0086   -0.8591   -1.5335 C   0  0  0  0  0  0  0  0  0  0  0  0
   -0.9454   -1.0046   -1.6710 H   0  0  0  0  0  0  0  0  0  0  0  0
   -2.4837   -0.0469   -0.5848 O   0  0  0  0  0  0  0  0  0  0  0  0
  1  2  3  0  0  0  0
  3  4  1  0  0  0  0
  3  8  1  0  0  0  0
  4  6  1  0  0  0  0
  5  4  1  0  0  0  0
  6 10  1  0  0  0  0
  6  7  1  0  0  0  0
  8 10  1  0  0  0  0
  9  8  1  0  0  0  0
M  RAD  4   3   3   4   2   6   2   8   2
M  END
