Coordinates from ORCA-job Furan-3-N2+-scan-d09-169-n800
 OpenBabel09191814033D

 10  9  0  0  0  0  0  0  0  0999 V2000
    9.8096    5.3302    4.6944 N   0  0  0  0  0  0  0  0  0  0  0  0
   10.7126    5.7416    5.1816 N   0  0  0  0  0  0  0  0  0  0  0  0
   -3.0927   -1.3193   -2.0821 C   0  0  0  0  0  0  0  0  0  0  0  0
   -4.2250   -0.5579   -1.9798 C   0  0  0  0  0  0  0  0  0  0  0  0
   -5.2561   -0.7314   -2.2608 H   0  0  0  0  0  0  0  0  0  0  0  0
   -3.7950    0.1235   -0.8387 C   0  0  0  0  0  0  0  0  0  0  0  0
   -4.4032    0.4890   -0.0164 H   0  0  0  0  0  0  0  0  0  0  0  0
   -1.9471   -0.8230   -1.4957 C   0  0  0  0  0  0  0  0  0  0  0  0
   -0.8819   -0.9610   -1.6249 H   0  0  0  0  0  0  0  0  0  0  0  0
   -2.4352   -0.0177   -0.5476 O   0  0  0  0  0  0  0  0  0  0  0  0
  1  2  3  0  0  0  0
  3  4  1  0  0  0  0
  3  8  1  0  0  0  0
  4  6  1  0  0  0  0
  5  4  1  0  0  0  0
  6 10  1  0  0  0  0
  6  7  1  0  0  0  0
  8 10  1  0  0  0  0
  9  8  1  0  0  0  0
M  RAD  4   3   3   4   2   6   2   8   2
M  END
