Coordinates from ORCA-job Furan-3-N2+-scan-d09-169-n800
 OpenBabel09191814033D

 10  9  0  0  0  0  0  0  0  0999 V2000
    5.2258    3.0885    2.4072 N   0  0  0  0  0  0  0  0  0  0  0  0
    6.1074    3.5541    2.8847 N   0  0  0  0  0  0  0  0  0  0  0  0
   -1.6309   -0.6780   -1.4670 C   0  0  0  0  0  0  0  0  0  0  0  0
   -2.9089   -0.1999   -1.5675 C   0  0  0  0  0  0  0  0  0  0  0  0
   -3.8079   -0.5935   -2.0247 H   0  0  0  0  0  0  0  0  0  0  0  0
   -2.8506    0.5179   -0.3705 C   0  0  0  0  0  0  0  0  0  0  0  0
   -3.6588    0.7032    0.3310 H   0  0  0  0  0  0  0  0  0  0  0  0
   -0.7492    0.0438   -0.6897 C   0  0  0  0  0  0  0  0  0  0  0  0
    0.3250    0.1583   -0.6290 H   0  0  0  0  0  0  0  0  0  0  0  0
   -1.5660    0.6796    0.1556 O   0  0  0  0  0  0  0  0  0  0  0  0
  1  2  3  0  0  0  0
  3  8  1  0  0  0  0
  4  3  1  0  0  0  0
  4  6  1  0  0  0  0
  5  4  1  0  0  0  0
  6 10  1  0  0  0  0
  6  7  1  0  0  0  0
  8  9  1  0  0  0  0
  8 10  1  0  0  0  0
M  RAD  4   3   3   4   2   6   2   8   2
M  END
