Coordinates from ORCA-job Furan-3-N2+-scan-d09-169-n800
 OpenBabel09191814033D

 10  9  0  0  0  0  0  0  0  0999 V2000
    7.2076    4.0671    3.4004 N   0  0  0  0  0  0  0  0  0  0  0  0
    8.1083    4.4956    3.8771 N   0  0  0  0  0  0  0  0  0  0  0  0
   -2.2635   -0.9642   -1.7421 C   0  0  0  0  0  0  0  0  0  0  0  0
   -3.4899   -0.3575   -1.7484 C   0  0  0  0  0  0  0  0  0  0  0  0
   -4.4573   -0.6574   -2.1307 H   0  0  0  0  0  0  0  0  0  0  0  0
   -3.2652    0.3535   -0.5672 C   0  0  0  0  0  0  0  0  0  0  0  0
   -3.9929    0.6234    0.1926 H   0  0  0  0  0  0  0  0  0  0  0  0
   -1.2546   -0.3354   -1.0427 C   0  0  0  0  0  0  0  0  0  0  0  0
   -0.1729   -0.3343   -1.0653 H   0  0  0  0  0  0  0  0  0  0  0  0
   -1.9336    0.3831   -0.1435 O   0  0  0  0  0  0  0  0  0  0  0  0
  1  2  3  0  0  0  0
  3  8  1  0  0  0  0
  4  3  1  0  0  0  0
  4  6  1  0  0  0  0
  5  4  1  0  0  0  0
  6 10  1  0  0  0  0
  6  7  1  0  0  0  0
  8 10  1  0  0  0  0
  9  8  1  0  0  0  0
M  RAD  4   3   3   4   2   6   2   8   2
M  END
