Coordinates from ORCA-job Furan-3-N2+-scan-d09-169-n800
 OpenBabel09191814033D

 10  9  0  0  0  0  0  0  0  0999 V2000
    2.6070    1.7052    0.5517 N   0  0  0  0  0  0  0  0  0  0  0  0
    3.6957    1.8693    0.6465 N   0  0  0  0  0  0  0  0  0  0  0  0
   -0.5397   -0.0022    0.1427 C   0  0  0  0  0  0  0  0  0  0  0  0
   -1.4118   -0.5960   -0.7291 C   0  0  0  0  0  0  0  0  0  0  0  0
   -1.6255   -1.6306   -0.9650 H   0  0  0  0  0  0  0  0  0  0  0  0
   -2.3512    0.4354   -0.6639 C   0  0  0  0  0  0  0  0  0  0  0  0
   -3.4319    0.3531   -0.7319 H   0  0  0  0  0  0  0  0  0  0  0  0
   -0.6219    1.3685    0.2746 C   0  0  0  0  0  0  0  0  0  0  0  0
    0.0522    2.1550    0.5835 H   0  0  0  0  0  0  0  0  0  0  0  0
   -1.8869    1.6162   -0.0788 O   0  0  0  0  0  0  0  0  0  0  0  0
  1  2  3  0  0  0  0
  3  8  1  0  0  0  0
  4  6  1  0  0  0  0
  4  3  1  0  0  0  0
  5  4  1  0  0  0  0
  6 10  1  0  0  0  0
  7  6  1  0  0  0  0
  8  9  1  0  0  0  0
 10  8  1  0  0  0  0
M  RAD  4   3   3   4   2   6   2   8   2
M  END
