Coordinates from ORCA-job Furan-3-N2+-scan-d09-169-n800
 OpenBabel09191814033D

 10  9  0  0  0  0  0  0  0  0999 V2000
    3.8002    2.3772    1.6475 N   0  0  0  0  0  0  0  0  0  0  0  0
    4.6861    2.8364    2.1229 N   0  0  0  0  0  0  0  0  0  0  0  0
   -1.1502   -0.4357   -1.2462 C   0  0  0  0  0  0  0  0  0  0  0  0
   -2.4540   -0.0735   -1.4492 C   0  0  0  0  0  0  0  0  0  0  0  0
   -3.2701   -0.5359   -1.9898 H   0  0  0  0  0  0  0  0  0  0  0  0
   -2.5649    0.6156   -0.2393 C   0  0  0  0  0  0  0  0  0  0  0  0
   -3.4434    0.7082    0.3925 H   0  0  0  0  0  0  0  0  0  0  0  0
   -0.4085    0.3446   -0.3828 C   0  0  0  0  0  0  0  0  0  0  0  0
    0.6411    0.5564   -0.2245 H   0  0  0  0  0  0  0  0  0  0  0  0
   -1.3504    0.8807    0.3991 O   0  0  0  0  0  0  0  0  0  0  0  0
  1  2  3  0  0  0  0
  3  8  1  0  0  0  0
  4  3  1  0  0  0  0
  4  6  1  0  0  0  0
  5  4  1  0  0  0  0
  6  7  1  0  0  0  0
  6 10  1  0  0  0  0
  8  9  1  0  0  0  0
  8 10  1  0  0  0  0
M  RAD  4   3   3   4   2   6   2   8   2
M  END
