Coordinates from ORCA-job Furan-3-N2+-scan-d09-169-n800
 OpenBabel09191814033D

 10  9  0  0  0  0  0  0  0  0999 V2000
    9.0234    4.9544    4.3188 N   0  0  0  0  0  0  0  0  0  0  0  0
    9.9303    5.3801    4.7861 N   0  0  0  0  0  0  0  0  0  0  0  0
   -2.8557   -1.2151   -1.9889 C   0  0  0  0  0  0  0  0  0  0  0  0
   -4.0101   -0.4851   -1.9091 C   0  0  0  0  0  0  0  0  0  0  0  0
   -5.0287   -0.6829   -2.2182 H   0  0  0  0  0  0  0  0  0  0  0  0
   -3.6276    0.1964   -0.7512 C   0  0  0  0  0  0  0  0  0  0  0  0
   -4.2662    0.5381    0.0581 H   0  0  0  0  0  0  0  0  0  0  0  0
   -1.7390   -0.6954   -1.3683 C   0  0  0  0  0  0  0  0  0  0  0  0
   -0.6676   -0.8039   -1.4713 H   0  0  0  0  0  0  0  0  0  0  0  0
   -2.2728    0.0875   -0.4259 O   0  0  0  0  0  0  0  0  0  0  0  0
  1  2  3  0  0  0  0
  3  4  1  0  0  0  0
  3  8  1  0  0  0  0
  4  6  1  0  0  0  0
  5  4  1  0  0  0  0
  6 10  1  0  0  0  0
  6  7  1  0  0  0  0
  8 10  1  0  0  0  0
  9  8  1  0  0  0  0
M  RAD  4   3   3   4   2   6   2   8   2
M  END
