Coordinates from ORCA-job Furan-3-N2+-scan-d09-169-n800
 OpenBabel09191814033D

 10  9  0  0  0  0  0  0  0  0999 V2000
   10.0169    5.4275    4.7934 N   0  0  0  0  0  0  0  0  0  0  0  0
   10.9180    5.8372    5.2856 N   0  0  0  0  0  0  0  0  0  0  0  0
   -3.1545   -1.3468   -2.1056 C   0  0  0  0  0  0  0  0  0  0  0  0
   -4.2817   -0.5787   -1.9977 C   0  0  0  0  0  0  0  0  0  0  0  0
   -5.3157   -0.7472   -2.2705 H   0  0  0  0  0  0  0  0  0  0  0  0
   -3.8393    0.1044   -0.8623 C   0  0  0  0  0  0  0  0  0  0  0  0
   -4.4394    0.4763   -0.0369 H   0  0  0  0  0  0  0  0  0  0  0  0
   -2.0018   -0.8552   -1.5293 C   0  0  0  0  0  0  0  0  0  0  0  0
   -0.9383   -0.9998   -1.6659 H   0  0  0  0  0  0  0  0  0  0  0  0
   -2.4783   -0.0437   -0.5807 O   0  0  0  0  0  0  0  0  0  0  0  0
  1  2  3  0  0  0  0
  3  4  1  0  0  0  0
  3  8  1  0  0  0  0
  4  6  1  0  0  0  0
  5  4  1  0  0  0  0
  6 10  1  0  0  0  0
  6  7  1  0  0  0  0
  8 10  1  0  0  0  0
  9  8  1  0  0  0  0
M  RAD  4   3   3   4   2   6   2   8   2
M  END
