Coordinates from ORCA-job Furan-3-N2+-scan-d09-169-n800
 OpenBabel09191814033D

 10  9  0  0  0  0  0  0  0  0999 V2000
    2.5745    1.4854    0.4574 N   0  0  0  0  0  0  0  0  0  0  0  0
    3.6633    1.6623    0.5229 N   0  0  0  0  0  0  0  0  0  0  0  0
   -0.5166    0.1318    0.2161 C   0  0  0  0  0  0  0  0  0  0  0  0
   -1.2884   -0.5304   -0.7001 C   0  0  0  0  0  0  0  0  0  0  0  0
   -1.3976   -1.5778   -0.9506 H   0  0  0  0  0  0  0  0  0  0  0  0
   -2.3150    0.4156   -0.6829 C   0  0  0  0  0  0  0  0  0  0  0  0
   -3.3792    0.2429   -0.8125 H   0  0  0  0  0  0  0  0  0  0  0  0
   -0.7244    1.4876    0.3499 C   0  0  0  0  0  0  0  0  0  0  0  0
   -0.1445    2.3296    0.6998 H   0  0  0  0  0  0  0  0  0  0  0  0
   -1.9863    1.6269   -0.0699 O   0  0  0  0  0  0  0  0  0  0  0  0
  1  2  3  0  0  0  0
  3  8  1  0  0  0  0
  4  6  1  0  0  0  0
  4  3  1  0  0  0  0
  5  4  1  0  0  0  0
  6 10  1  0  0  0  0
  7  6  1  0  0  0  0
  8  9  1  0  0  0  0
 10  8  1  0  0  0  0
M  RAD  4   3   3   4   2   6   2   8   2
M  END
