Coordinates from ORCA-job Furan-3-N2+-scan-d09-169-n800
 OpenBabel09191814033D

 10  9  0  0  0  0  0  0  0  0999 V2000
    8.3033    4.6056    3.9569 N   0  0  0  0  0  0  0  0  0  0  0  0
    9.2061    5.0344    4.4293 N   0  0  0  0  0  0  0  0  0  0  0  0
   -2.6270   -1.1184   -1.8953 C   0  0  0  0  0  0  0  0  0  0  0  0
   -3.8081   -0.4296   -1.8442 C   0  0  0  0  0  0  0  0  0  0  0  0
   -4.8106   -0.6620   -2.1804 H   0  0  0  0  0  0  0  0  0  0  0  0
   -3.4802    0.2614   -0.6753 C   0  0  0  0  0  0  0  0  0  0  0  0
   -4.1514    0.5779    0.1178 H   0  0  0  0  0  0  0  0  0  0  0  0
   -1.5459   -0.5618   -1.2445 C   0  0  0  0  0  0  0  0  0  0  0  0
   -0.4690   -0.6323   -1.3195 H   0  0  0  0  0  0  0  0  0  0  0  0
   -2.1313    0.1989   -0.3148 O   0  0  0  0  0  0  0  0  0  0  0  0
  1  2  3  0  0  0  0
  3  4  1  0  0  0  0
  3  8  1  0  0  0  0
  4  6  1  0  0  0  0
  5  4  1  0  0  0  0
  6 10  1  0  0  0  0
  6  7  1  0  0  0  0
  8 10  1  0  0  0  0
  9  8  1  0  0  0  0
M  RAD  4   3   3   4   2   6   2   8   2
M  END
