Coordinates from ORCA-job Furan-3-N2+-scan-d09-169-n800
 OpenBabel09191814033D

 10 10  0  0  0  0  0  0  0  0999 V2000
    1.5732    0.8199    0.1766 N   0  0  0  0  0  0  0  0  0  0  0  0
    2.6750    0.8075    0.2918 N   0  0  0  0  0  0  0  0  0  0  0  0
   -0.0175    0.8073   -0.0032 C   0  0  0  0  0  0  0  0  0  0  0  0
   -0.7804   -0.2571   -0.5571 C   0  0  0  0  0  0  0  0  0  0  0  0
   -0.4569   -1.2116   -0.9433 H   0  0  0  0  0  0  0  0  0  0  0  0
   -2.0423    0.2465   -0.4727 C   0  0  0  0  0  0  0  0  0  0  0  0
   -3.0091   -0.1448   -0.7513 H   0  0  0  0  0  0  0  0  0  0  0  0
   -0.7960    1.8677    0.3799 C   0  0  0  0  0  0  0  0  0  0  0  0
   -0.6152    2.8339    0.8265 H   0  0  0  0  0  0  0  0  0  0  0  0
   -2.0450    1.5048    0.0829 O   0  0  0  0  0  0  0  0  0  0  0  0
  1  2  1  0  0  0  0
  3  1  1  0  0  0  0
  3  8  2  0  0  0  0
  4  6  2  0  0  0  0
  4  3  1  0  0  0  0
  5  4  1  0  0  0  0
  6 10  1  0  0  0  0
  7  6  1  0  0  0  0
  8  9  1  0  0  0  0
 10  8  1  0  0  0  0
M  RAD  2   1   2   2   3
M  END
