Coordinates from ORCA-job Furan-3-N2+-scan-d09-169-n800
 OpenBabel09191814033D

 10  9  0  0  0  0  0  0  0  0999 V2000
    6.8585    3.8973    3.2215 N   0  0  0  0  0  0  0  0  0  0  0  0
    7.7581    4.3273    3.6989 N   0  0  0  0  0  0  0  0  0  0  0  0
   -2.1490   -0.9113   -1.6958 C   0  0  0  0  0  0  0  0  0  0  0  0
   -3.3859   -0.3270   -1.7205 C   0  0  0  0  0  0  0  0  0  0  0  0
   -4.3408   -0.6421   -2.1217 H   0  0  0  0  0  0  0  0  0  0  0  0
   -3.1951    0.3809   -0.5315 C   0  0  0  0  0  0  0  0  0  0  0  0
   -3.9410    0.6331    0.2167 H   0  0  0  0  0  0  0  0  0  0  0  0
   -1.1642   -0.2686   -0.9750 C   0  0  0  0  0  0  0  0  0  0  0  0
   -0.0825   -0.2477   -0.9783 H   0  0  0  0  0  0  0  0  0  0  0  0
   -1.8721    0.4321   -0.0841 O   0  0  0  0  0  0  0  0  0  0  0  0
  1  2  3  0  0  0  0
  3  8  1  0  0  0  0
  4  3  1  0  0  0  0
  4  6  1  0  0  0  0
  5  4  1  0  0  0  0
  6 10  1  0  0  0  0
  6  7  1  0  0  0  0
  8 10  1  0  0  0  0
  9  8  1  0  0  0  0
M  RAD  4   3   3   4   2   6   2   8   2
M  END
