Coordinates from ORCA-job Furan-3-N2+-scan-d09-169-n800
 OpenBabel09191814033D

 10  9  0  0  0  0  0  0  0  0999 V2000
    6.1351    3.5424    2.8536 N   0  0  0  0  0  0  0  0  0  0  0  0
    7.0311    3.9778    3.3329 N   0  0  0  0  0  0  0  0  0  0  0  0
   -1.9134   -0.8041   -1.5952 C   0  0  0  0  0  0  0  0  0  0  0  0
   -3.1710   -0.2688   -1.6580 C   0  0  0  0  0  0  0  0  0  0  0  0
   -4.0989   -0.6190   -2.0921 H   0  0  0  0  0  0  0  0  0  0  0  0
   -3.0477    0.4387   -0.4598 C   0  0  0  0  0  0  0  0  0  0  0  0
   -3.8272    0.6562    0.2645 H   0  0  0  0  0  0  0  0  0  0  0  0
   -0.9792   -0.1272   -0.8391 C   0  0  0  0  0  0  0  0  0  0  0  0
    0.1002   -0.0616   -0.8080 H   0  0  0  0  0  0  0  0  0  0  0  0
   -1.7432    0.5395    0.0313 O   0  0  0  0  0  0  0  0  0  0  0  0
  1  2  3  0  0  0  0
  3  8  1  0  0  0  0
  4  3  1  0  0  0  0
  4  6  1  0  0  0  0
  5  4  1  0  0  0  0
  6 10  1  0  0  0  0
  6  7  1  0  0  0  0
  8  9  1  0  0  0  0
  8 10  1  0  0  0  0
M  RAD  4   3   3   4   2   6   2   8   2
M  END
