Coordinates from ORCA-job Furan-3-N2+-scan-d09-169-n800
 OpenBabel09191814033D

 10  9  0  0  0  0  0  0  0  0999 V2000
    7.4327    4.1760    3.5156 N   0  0  0  0  0  0  0  0  0  0  0  0
    8.3340    4.6035    3.9918 N   0  0  0  0  0  0  0  0  0  0  0  0
   -2.3369   -0.9980   -1.7712 C   0  0  0  0  0  0  0  0  0  0  0  0
   -3.5566   -0.3777   -1.7661 C   0  0  0  0  0  0  0  0  0  0  0  0
   -4.5316   -0.6685   -2.1360 H   0  0  0  0  0  0  0  0  0  0  0  0
   -3.3104    0.3357   -0.5906 C   0  0  0  0  0  0  0  0  0  0  0  0
   -4.0264    0.6168    0.1763 H   0  0  0  0  0  0  0  0  0  0  0  0
   -1.3132   -0.3775   -1.0862 C   0  0  0  0  0  0  0  0  0  0  0  0
   -0.2319   -0.3885   -1.1212 H   0  0  0  0  0  0  0  0  0  0  0  0
   -1.9738    0.3522   -0.1824 O   0  0  0  0  0  0  0  0  0  0  0  0
  1  2  3  0  0  0  0
  3  4  1  0  0  0  0
  3  8  1  0  0  0  0
  4  6  1  0  0  0  0
  5  4  1  0  0  0  0
  6 10  1  0  0  0  0
  6  7  1  0  0  0  0
  8 10  1  0  0  0  0
  9  8  1  0  0  0  0
M  RAD  4   3   3   4   2   6   2   8   2
M  END
