Coordinates from ORCA-job Furan-3-N2+-scan-d09-169-n800
 OpenBabel09191814033D

 10  9  0  0  0  0  0  0  0  0999 V2000
    2.7837    1.8247    1.0417 N   0  0  0  0  0  0  0  0  0  0  0  0
    3.7159    2.2397    1.4645 N   0  0  0  0  0  0  0  0  0  0  0  0
   -0.7653   -0.2051   -1.0326 C   0  0  0  0  0  0  0  0  0  0  0  0
   -2.0737    0.0192   -1.3660 C   0  0  0  0  0  0  0  0  0  0  0  0
   -2.7728   -0.5132   -1.9980 H   0  0  0  0  0  0  0  0  0  0  0  0
   -2.3844    0.6571   -0.1636 C   0  0  0  0  0  0  0  0  0  0  0  0
   -3.3283    0.6385    0.3730 H   0  0  0  0  0  0  0  0  0  0  0  0
   -0.2046    0.6279   -0.0852 C   0  0  0  0  0  0  0  0  0  0  0  0
    0.7938    0.9516    0.1938 H   0  0  0  0  0  0  0  0  0  0  0  0
   -1.2784    1.0335    0.6025 O   0  0  0  0  0  0  0  0  0  0  0  0
  1  2  3  0  0  0  0
  3  8  1  0  0  0  0
  4  3  1  0  0  0  0
  4  6  1  0  0  0  0
  5  4  1  0  0  0  0
  6  7  1  0  0  0  0
  6 10  1  0  0  0  0
  8  9  1  0  0  0  0
  8 10  1  0  0  0  0
M  RAD  4   3   3   4   2   6   2   8   2
M  END
