Coordinates from ORCA-job Furan-3-N2+-scan-d09-169-n800
 OpenBabel09191814033D

 10  9  0  0  0  0  0  0  0  0999 V2000
   10.1598    5.4939    4.8623 N   0  0  0  0  0  0  0  0  0  0  0  0
   11.0602    5.9032    5.3562 N   0  0  0  0  0  0  0  0  0  0  0  0
   -3.1964   -1.3655   -2.1218 C   0  0  0  0  0  0  0  0  0  0  0  0
   -4.3204   -0.5932   -2.0105 C   0  0  0  0  0  0  0  0  0  0  0  0
   -5.3563   -0.7588   -2.2781 H   0  0  0  0  0  0  0  0  0  0  0  0
   -3.8704    0.0909   -0.8786 C   0  0  0  0  0  0  0  0  0  0  0  0
   -4.4654    0.4668   -0.0514 H   0  0  0  0  0  0  0  0  0  0  0  0
   -2.0393   -0.8767   -1.5520 C   0  0  0  0  0  0  0  0  0  0  0  0
   -0.9771   -1.0254   -1.6931 H   0  0  0  0  0  0  0  0  0  0  0  0
   -2.5087   -0.0613   -0.6030 O   0  0  0  0  0  0  0  0  0  0  0  0
  1  2  3  0  0  0  0
  3  4  1  0  0  0  0
  3  8  1  0  0  0  0
  4  6  1  0  0  0  0
  5  4  1  0  0  0  0
  6 10  1  0  0  0  0
  6  7  1  0  0  0  0
  8 10  1  0  0  0  0
  9  8  1  0  0  0  0
M  RAD  4   3   3   4   2   6   2   8   2
M  END
