Coordinates from ORCA-job Furan-3-N2+-scan-d09-169-n800
 OpenBabel09191814033D

 10  9  0  0  0  0  0  0  0  0999 V2000
   10.2249    5.5242    4.8936 N   0  0  0  0  0  0  0  0  0  0  0  0
   11.1249    5.9332    5.3884 N   0  0  0  0  0  0  0  0  0  0  0  0
   -3.2154   -1.3740   -2.1291 C   0  0  0  0  0  0  0  0  0  0  0  0
   -4.3380   -0.5999   -2.0164 C   0  0  0  0  0  0  0  0  0  0  0  0
   -5.3747   -0.7642   -2.2818 H   0  0  0  0  0  0  0  0  0  0  0  0
   -3.8847    0.0847   -0.8861 C   0  0  0  0  0  0  0  0  0  0  0  0
   -4.4774    0.4623   -0.0581 H   0  0  0  0  0  0  0  0  0  0  0  0
   -2.0564   -0.8863   -1.5621 C   0  0  0  0  0  0  0  0  0  0  0  0
   -0.9947   -1.0367   -1.7053 H   0  0  0  0  0  0  0  0  0  0  0  0
   -2.5226   -0.0693   -0.6131 O   0  0  0  0  0  0  0  0  0  0  0  0
  1  2  3  0  0  0  0
  3  4  1  0  0  0  0
  3  8  1  0  0  0  0
  4  6  1  0  0  0  0
  5  4  1  0  0  0  0
  6 10  1  0  0  0  0
  6  7  1  0  0  0  0
  8 10  1  0  0  0  0
  9  8  1  0  0  0  0
M  RAD  4   3   3   4   2   6   2   8   2
M  END
