Coordinates from ORCA-job Furan-3-N2+-scan-d09-169-n800
 OpenBabel09191814033D

 10  9  0  0  0  0  0  0  0  0999 V2000
    2.1548    0.8257    0.2428 N   0  0  0  0  0  0  0  0  0  0  0  0
    3.2527    0.8211    0.3609 N   0  0  0  0  0  0  0  0  0  0  0  0
   -0.2917    0.8098   -0.0320 C   0  0  0  0  0  0  0  0  0  0  0  0
   -0.9113   -0.2952   -0.5881 C   0  0  0  0  0  0  0  0  0  0  0  0
   -0.5696   -1.2448   -0.9700 H   0  0  0  0  0  0  0  0  0  0  0  0
   -2.1750    0.2373   -0.4915 C   0  0  0  0  0  0  0  0  0  0  0  0
   -3.1388   -0.1640   -0.7744 H   0  0  0  0  0  0  0  0  0  0  0  0
   -0.9208    1.9105    0.3852 C   0  0  0  0  0  0  0  0  0  0  0  0
   -0.7260    2.8714    0.8310 H   0  0  0  0  0  0  0  0  0  0  0  0
   -2.1883    1.5022    0.0662 O   0  0  0  0  0  0  0  0  0  0  0  0
  1  2  3  0  0  0  0
  3  8  2  0  0  0  0
  4  6  2  0  0  0  0
  4  3  1  0  0  0  0
  5  4  1  0  0  0  0
  6 10  1  0  0  0  0
  7  6  1  0  0  0  0
  8  9  1  0  0  0  0
 10  8  1  0  0  0  0
M  RAD  1   3   2
M  END
