Coordinates from ORCA-job Furan-3-N2+-scan-d09-169-n800
 OpenBabel09191814033D

 10  9  0  0  0  0  0  0  0  0999 V2000
    4.6791    2.8315    2.1350 N   0  0  0  0  0  0  0  0  0  0  0  0
    5.5616    3.2960    2.6116 N   0  0  0  0  0  0  0  0  0  0  0  0
   -1.4619   -0.5979   -1.3928 C   0  0  0  0  0  0  0  0  0  0  0  0
   -2.7480   -0.1485   -1.5190 C   0  0  0  0  0  0  0  0  0  0  0  0
   -3.6272   -0.5595   -1.9987 H   0  0  0  0  0  0  0  0  0  0  0  0
   -2.7330    0.5622   -0.3164 C   0  0  0  0  0  0  0  0  0  0  0  0
   -3.5606    0.7241    0.3680 H   0  0  0  0  0  0  0  0  0  0  0  0
   -0.6146    0.1387   -0.5913 C   0  0  0  0  0  0  0  0  0  0  0  0
    0.4551    0.2775   -0.5056 H   0  0  0  0  0  0  0  0  0  0  0  0
   -1.4645    0.7498    0.2393 O   0  0  0  0  0  0  0  0  0  0  0  0
  1  2  3  0  0  0  0
  3  8  1  0  0  0  0
  4  3  1  0  0  0  0
  4  6  1  0  0  0  0
  5  4  1  0  0  0  0
  6 10  1  0  0  0  0
  6  7  1  0  0  0  0
  8  9  1  0  0  0  0
  8 10  1  0  0  0  0
M  RAD  4   3   3   4   2   6   2   8   2
M  END
