Coordinates from ORCA-job Furan-3-N2+-scan-d09-169-n800
 OpenBabel09191814033D

 10  9  0  0  0  0  0  0  0  0999 V2000
    8.9724    4.9301    4.2934 N   0  0  0  0  0  0  0  0  0  0  0  0
    9.8791    5.3559    4.7609 N   0  0  0  0  0  0  0  0  0  0  0  0
   -2.8399   -1.2083   -1.9825 C   0  0  0  0  0  0  0  0  0  0  0  0
   -3.9960   -0.4808   -1.9045 C   0  0  0  0  0  0  0  0  0  0  0  0
   -5.0136   -0.6806   -2.2155 H   0  0  0  0  0  0  0  0  0  0  0  0
   -3.6170    0.2011   -0.7457 C   0  0  0  0  0  0  0  0  0  0  0  0
   -4.2577    0.5411    0.0627 H   0  0  0  0  0  0  0  0  0  0  0  0
   -1.7254   -0.6865   -1.3598 C   0  0  0  0  0  0  0  0  0  0  0  0
   -0.6536   -0.7928   -1.4609 H   0  0  0  0  0  0  0  0  0  0  0  0
   -2.2625    0.0948   -0.4180 O   0  0  0  0  0  0  0  0  0  0  0  0
  1  2  3  0  0  0  0
  3  4  1  0  0  0  0
  3  8  1  0  0  0  0
  4  6  1  0  0  0  0
  5  4  1  0  0  0  0
  6 10  1  0  0  0  0
  6  7  1  0  0  0  0
  8 10  1  0  0  0  0
  9  8  1  0  0  0  0
M  RAD  4   3   3   4   2   6   2   8   2
M  END
