Coordinates from ORCA-job Furan-3-N2+-scan-d09-169-n800
 OpenBabel09191814033D

 10  9  0  0  0  0  0  0  0  0999 V2000
    1.9000    0.8227    0.2135 N   0  0  0  0  0  0  0  0  0  0  0  0
    2.9976    0.8150    0.3303 N   0  0  0  0  0  0  0  0  0  0  0  0
   -0.1883    0.8092   -0.0211 C   0  0  0  0  0  0  0  0  0  0  0  0
   -0.8510   -0.2831   -0.5761 C   0  0  0  0  0  0  0  0  0  0  0  0
   -0.5178   -1.2346   -0.9598 H   0  0  0  0  0  0  0  0  0  0  0  0
   -2.1147    0.2428   -0.4824 C   0  0  0  0  0  0  0  0  0  0  0  0
   -3.0783   -0.1571   -0.7648 H   0  0  0  0  0  0  0  0  0  0  0  0
   -0.8627    1.8972    0.3857 C   0  0  0  0  0  0  0  0  0  0  0  0
   -0.6729    2.8594    0.8315 H   0  0  0  0  0  0  0  0  0  0  0  0
   -2.1261    1.5026    0.0732 O   0  0  0  0  0  0  0  0  0  0  0  0
  1  2  3  0  0  0  0
  3  8  2  0  0  0  0
  4  6  2  0  0  0  0
  4  3  1  0  0  0  0
  5  4  1  0  0  0  0
  6 10  1  0  0  0  0
  7  6  1  0  0  0  0
  8  9  1  0  0  0  0
 10  8  1  0  0  0  0
M  RAD  1   3   2
M  END
