Coordinates from ORCA-job Furan-3-N2+-scan-d09-169-n800
 OpenBabel09191814033D

 10  9  0  0  0  0  0  0  0  0999 V2000
    6.6337    3.7880    3.1066 N   0  0  0  0  0  0  0  0  0  0  0  0
    7.5325    4.2190    3.5844 N   0  0  0  0  0  0  0  0  0  0  0  0
   -2.0755   -0.8780   -1.6658 C   0  0  0  0  0  0  0  0  0  0  0  0
   -3.3188   -0.3075   -1.7020 C   0  0  0  0  0  0  0  0  0  0  0  0
   -4.2655   -0.6323   -2.1148 H   0  0  0  0  0  0  0  0  0  0  0  0
   -3.1496    0.3987   -0.5087 C   0  0  0  0  0  0  0  0  0  0  0  0
   -3.9066    0.6392    0.2320 H   0  0  0  0  0  0  0  0  0  0  0  0
   -1.1068   -0.2253   -0.9320 C   0  0  0  0  0  0  0  0  0  0  0  0
   -0.0254   -0.1918   -0.9228 H   0  0  0  0  0  0  0  0  0  0  0  0
   -1.8321    0.4641   -0.0467 O   0  0  0  0  0  0  0  0  0  0  0  0
  1  2  3  0  0  0  0
  3  8  1  0  0  0  0
  4  3  1  0  0  0  0
  4  6  1  0  0  0  0
  5  4  1  0  0  0  0
  6 10  1  0  0  0  0
  6  7  1  0  0  0  0
  8  9  1  0  0  0  0
  8 10  1  0  0  0  0
M  RAD  4   3   3   4   2   6   2   8   2
M  END
