Coordinates from ORCA-job Furan-3-N2+-scan-d09-169-n800
 OpenBabel09191814033D

 10  9  0  0  0  0  0  0  0  0999 V2000
    9.3814    5.1244    4.4962 N   0  0  0  0  0  0  0  0  0  0  0  0
   10.2896    5.5492    4.9620 N   0  0  0  0  0  0  0  0  0  0  0  0
   -2.9654   -1.2629   -2.0328 C   0  0  0  0  0  0  0  0  0  0  0  0
   -4.1082   -0.5160   -1.9422 C   0  0  0  0  0  0  0  0  0  0  0  0
   -5.1329   -0.7001   -2.2393 H   0  0  0  0  0  0  0  0  0  0  0  0
   -3.7034    0.1629   -0.7904 C   0  0  0  0  0  0  0  0  0  0  0  0
   -4.3281    0.5149    0.0254 H   0  0  0  0  0  0  0  0  0  0  0  0
   -1.8347   -0.7559   -1.4267 C   0  0  0  0  0  0  0  0  0  0  0  0
   -0.7659   -0.8790   -1.5416 H   0  0  0  0  0  0  0  0  0  0  0  0
   -2.3464    0.0365   -0.4805 O   0  0  0  0  0  0  0  0  0  0  0  0
  1  2  3  0  0  0  0
  3  4  1  0  0  0  0
  3  8  1  0  0  0  0
  4  6  1  0  0  0  0
  5  4  1  0  0  0  0
  6 10  1  0  0  0  0
  6  7  1  0  0  0  0
  8 10  1  0  0  0  0
  9  8  1  0  0  0  0
M  RAD  4   3   3   4   2   6   2   8   2
M  END
