Coordinates from ORCA-job Furan-3-N2+-scan-d09-169-n800
 OpenBabel09191814033D

 10  9  0  0  0  0  0  0  0  0999 V2000
    3.5175    2.2297    1.4883 N   0  0  0  0  0  0  0  0  0  0  0  0
    4.4049    2.6862    1.9634 N   0  0  0  0  0  0  0  0  0  0  0  0
   -1.0496   -0.3813   -1.1964 C   0  0  0  0  0  0  0  0  0  0  0  0
   -2.3569   -0.0491   -1.4260 C   0  0  0  0  0  0  0  0  0  0  0  0
   -3.1499   -0.5282   -1.9860 H   0  0  0  0  0  0  0  0  0  0  0  0
   -2.5102    0.6313   -0.2158 C   0  0  0  0  0  0  0  0  0  0  0  0
   -3.4041    0.7000    0.3973 H   0  0  0  0  0  0  0  0  0  0  0  0
   -0.3449    0.4130   -0.3140 C   0  0  0  0  0  0  0  0  0  0  0  0
    0.6955    0.6501   -0.1302 H   0  0  0  0  0  0  0  0  0  0  0  0
   -1.3164    0.9224    0.4495 O   0  0  0  0  0  0  0  0  0  0  0  0
  1  2  3  0  0  0  0
  3  8  1  0  0  0  0
  4  3  1  0  0  0  0
  4  6  1  0  0  0  0
  5  4  1  0  0  0  0
  6  7  1  0  0  0  0
  6 10  1  0  0  0  0
  8  9  1  0  0  0  0
  8 10  1  0  0  0  0
M  RAD  4   3   3   4   2   6   2   8   2
M  END
