Coordinates from ORCA-job Furan-3-N2+-scan-d09-169-n800
 OpenBabel09191814033D

 10  9  0  0  0  0  0  0  0  0999 V2000
    6.1473    3.5486    2.8597 N   0  0  0  0  0  0  0  0  0  0  0  0
    7.0433    3.9838    3.3390 N   0  0  0  0  0  0  0  0  0  0  0  0
   -1.9174   -0.8064   -1.5973 C   0  0  0  0  0  0  0  0  0  0  0  0
   -3.1744   -0.2694   -1.6592 C   0  0  0  0  0  0  0  0  0  0  0  0
   -4.1029   -0.6184   -2.0930 H   0  0  0  0  0  0  0  0  0  0  0  0
   -3.0500    0.4378   -0.4609 C   0  0  0  0  0  0  0  0  0  0  0  0
   -3.8291    0.6554    0.2639 H   0  0  0  0  0  0  0  0  0  0  0  0
   -0.9827   -0.1299   -0.8412 C   0  0  0  0  0  0  0  0  0  0  0  0
    0.0969   -0.0651   -0.8102 H   0  0  0  0  0  0  0  0  0  0  0  0
   -1.7451    0.5375    0.0294 O   0  0  0  0  0  0  0  0  0  0  0  0
  1  2  3  0  0  0  0
  3  8  1  0  0  0  0
  4  3  1  0  0  0  0
  4  6  1  0  0  0  0
  5  4  1  0  0  0  0
  6 10  1  0  0  0  0
  6  7  1  0  0  0  0
  8  9  1  0  0  0  0
  8 10  1  0  0  0  0
M  RAD  4   3   3   4   2   6   2   8   2
M  END
