Coordinates from ORCA-job Furan-3-N2+-scan-d09-169-n800
 OpenBabel09191814033D

 10  9  0  0  0  0  0  0  0  0999 V2000
    6.4838    3.7150    3.0303 N   0  0  0  0  0  0  0  0  0  0  0  0
    7.3822    4.1468    3.5083 N   0  0  0  0  0  0  0  0  0  0  0  0
   -2.0268   -0.8557   -1.6452 C   0  0  0  0  0  0  0  0  0  0  0  0
   -3.2741   -0.2948   -1.6895 C   0  0  0  0  0  0  0  0  0  0  0  0
   -4.2153   -0.6262   -2.1095 H   0  0  0  0  0  0  0  0  0  0  0  0
   -3.1190    0.4106   -0.4937 C   0  0  0  0  0  0  0  0  0  0  0  0
   -3.8833    0.6437    0.2420 H   0  0  0  0  0  0  0  0  0  0  0  0
   -1.0686   -0.1968   -0.9033 C   0  0  0  0  0  0  0  0  0  0  0  0
    0.0124   -0.1540   -0.8870 H   0  0  0  0  0  0  0  0  0  0  0  0
   -1.8054    0.4855   -0.0221 O   0  0  0  0  0  0  0  0  0  0  0  0
  1  2  3  0  0  0  0
  3  8  1  0  0  0  0
  4  3  1  0  0  0  0
  4  6  1  0  0  0  0
  5  4  1  0  0  0  0
  6 10  1  0  0  0  0
  6  7  1  0  0  0  0
  8  9  1  0  0  0  0
  8 10  1  0  0  0  0
M  RAD  4   3   3   4   2   6   2   8   2
M  END
