Coordinates from ORCA-job Furan-3-N2+-scan-d09-169-n800
 OpenBabel09191814033D

 10  9  0  0  0  0  0  0  0  0999 V2000
    6.9582    3.9459    3.2725 N   0  0  0  0  0  0  0  0  0  0  0  0
    7.8581    4.3754    3.7498 N   0  0  0  0  0  0  0  0  0  0  0  0
   -2.1817   -0.9264   -1.7092 C   0  0  0  0  0  0  0  0  0  0  0  0
   -3.4156   -0.3356   -1.7286 C   0  0  0  0  0  0  0  0  0  0  0  0
   -4.3742   -0.6463   -2.1245 H   0  0  0  0  0  0  0  0  0  0  0  0
   -3.2152    0.3731   -0.5416 C   0  0  0  0  0  0  0  0  0  0  0  0
   -3.9559    0.6304    0.2099 H   0  0  0  0  0  0  0  0  0  0  0  0
   -1.1900   -0.2878   -0.9943 C   0  0  0  0  0  0  0  0  0  0  0  0
   -0.1082   -0.2727   -1.0031 H   0  0  0  0  0  0  0  0  0  0  0  0
   -1.8896    0.4180   -0.1009 O   0  0  0  0  0  0  0  0  0  0  0  0
  1  2  3  0  0  0  0
  3  8  1  0  0  0  0
  4  3  1  0  0  0  0
  4  6  1  0  0  0  0
  5  4  1  0  0  0  0
  6 10  1  0  0  0  0
  6  7  1  0  0  0  0
  8 10  1  0  0  0  0
  9  8  1  0  0  0  0
M  RAD  4   3   3   4   2   6   2   8   2
M  END
