Coordinates from ORCA-job Furan-3-N2+-scan-d09-169-n800
 OpenBabel09191814033D

 10 10  0  0  0  0  0  0  0  0999 V2000
    1.2178    0.8071    0.1320 N   0  0  0  0  0  0  0  0  0  0  0  0
    2.3504    0.7801    0.2440 N   0  0  0  0  0  0  0  0  0  0  0  0
    0.1635    0.8170    0.0208 C   0  0  0  0  0  0  0  0  0  0  0  0
   -0.7134   -0.2413   -0.5426 C   0  0  0  0  0  0  0  0  0  0  0  0
   -0.3718   -1.1930   -0.9256 H   0  0  0  0  0  0  0  0  0  0  0  0
   -1.9657    0.2401   -0.4672 C   0  0  0  0  0  0  0  0  0  0  0  0
   -2.9376   -0.1415   -0.7422 H   0  0  0  0  0  0  0  0  0  0  0  0
   -0.7408    1.8608    0.3830 C   0  0  0  0  0  0  0  0  0  0  0  0
   -0.5562    2.8305    0.8316 H   0  0  0  0  0  0  0  0  0  0  0  0
   -1.9604    1.5142    0.0963 O   0  0  0  0  0  0  0  0  0  0  0  0
  1  2  1  0  0  0  0
  3  1  1  0  0  0  0
  3  8  2  0  0  0  0
  4  6  2  0  0  0  0
  4  3  1  0  0  0  0
  5  4  1  0  0  0  0
  6 10  1  0  0  0  0
  7  6  1  0  0  0  0
  8  9  1  0  0  0  0
 10  8  1  0  0  0  0
M  RAD  2   1   2   2   3
M  END
