Coordinates from ORCA-job Furan-3-N2+-scan-d09-169-n800
 OpenBabel09191814033D

 10  9  0  0  0  0  0  0  0  0999 V2000
    5.8605    3.4047    2.7152 N   0  0  0  0  0  0  0  0  0  0  0  0
    6.7526    3.8454    3.1967 N   0  0  0  0  0  0  0  0  0  0  0  0
   -1.8249   -0.7654   -1.5554 C   0  0  0  0  0  0  0  0  0  0  0  0
   -3.0902   -0.2498   -1.6313 C   0  0  0  0  0  0  0  0  0  0  0  0
   -4.0082   -0.6153   -2.0738 H   0  0  0  0  0  0  0  0  0  0  0  0
   -2.9901    0.4618   -0.4334 C   0  0  0  0  0  0  0  0  0  0  0  0
   -3.7801    0.6676    0.2830 H   0  0  0  0  0  0  0  0  0  0  0  0
   -0.9097   -0.0715   -0.7914 C   0  0  0  0  0  0  0  0  0  0  0  0
    0.1682    0.0118   -0.7496 H   0  0  0  0  0  0  0  0  0  0  0  0
   -1.6922    0.5846    0.0700 O   0  0  0  0  0  0  0  0  0  0  0  0
  1  2  3  0  0  0  0
  3  8  1  0  0  0  0
  4  3  1  0  0  0  0
  4  6  1  0  0  0  0
  5  4  1  0  0  0  0
  6 10  1  0  0  0  0
  6  7  1  0  0  0  0
  8  9  1  0  0  0  0
  8 10  1  0  0  0  0
M  RAD  4   3   3   4   2   6   2   8   2
M  END
