Coordinates from ORCA-job Furan-3-N2+-scan-d09-169-n800
 OpenBabel09191814033D

 10  9  0  0  0  0  0  0  0  0999 V2000
    3.5999    2.2727    1.5348 N   0  0  0  0  0  0  0  0  0  0  0  0
    4.4870    2.7301    2.0098 N   0  0  0  0  0  0  0  0  0  0  0  0
   -1.0789   -0.3972   -1.2110 C   0  0  0  0  0  0  0  0  0  0  0  0
   -2.3852   -0.0562   -1.4329 C   0  0  0  0  0  0  0  0  0  0  0  0
   -3.1851   -0.5304   -1.9874 H   0  0  0  0  0  0  0  0  0  0  0  0
   -2.5262    0.6267   -0.2226 C   0  0  0  0  0  0  0  0  0  0  0  0
   -3.4158    0.7024    0.3959 H   0  0  0  0  0  0  0  0  0  0  0  0
   -0.3634    0.3929   -0.3340 C   0  0  0  0  0  0  0  0  0  0  0  0
    0.6799    0.6226   -0.1576 H   0  0  0  0  0  0  0  0  0  0  0  0
   -1.3263    0.9102    0.4350 O   0  0  0  0  0  0  0  0  0  0  0  0
  1  2  3  0  0  0  0
  3  8  1  0  0  0  0
  4  3  1  0  0  0  0
  4  6  1  0  0  0  0
  5  4  1  0  0  0  0
  6  7  1  0  0  0  0
  6 10  1  0  0  0  0
  8  9  1  0  0  0  0
  8 10  1  0  0  0  0
M  RAD  4   3   3   4   2   6   2   8   2
M  END
