Coordinates from ORCA-job Furan-3-N2+-scan-d09-169-n800
 OpenBabel09191814033D

 10  9  0  0  0  0  0  0  0  0999 V2000
   10.1987    5.5120    4.8816 N   0  0  0  0  0  0  0  0  0  0  0  0
   11.0992    5.9213    5.3751 N   0  0  0  0  0  0  0  0  0  0  0  0
   -3.2078   -1.3706   -2.1262 C   0  0  0  0  0  0  0  0  0  0  0  0
   -4.3309   -0.5972   -2.0141 C   0  0  0  0  0  0  0  0  0  0  0  0
   -5.3673   -0.7620   -2.2804 H   0  0  0  0  0  0  0  0  0  0  0  0
   -3.8791    0.0871   -0.8831 C   0  0  0  0  0  0  0  0  0  0  0  0
   -4.4727    0.4640   -0.0554 H   0  0  0  0  0  0  0  0  0  0  0  0
   -2.0496   -0.8824   -1.5580 C   0  0  0  0  0  0  0  0  0  0  0  0
   -0.9876   -1.0321   -1.7003 H   0  0  0  0  0  0  0  0  0  0  0  0
   -2.5171   -0.0661   -0.6090 O   0  0  0  0  0  0  0  0  0  0  0  0
  1  2  3  0  0  0  0
  3  4  1  0  0  0  0
  3  8  1  0  0  0  0
  4  6  1  0  0  0  0
  5  4  1  0  0  0  0
  6 10  1  0  0  0  0
  6  7  1  0  0  0  0
  8 10  1  0  0  0  0
  9  8  1  0  0  0  0
M  RAD  4   3   3   4   2   6   2   8   2
M  END
