Coordinates from ORCA-job Furan-3-N2+-scan-d09-169-n800
 OpenBabel09191814033D

 10  9  0  0  0  0  0  0  0  0999 V2000
    4.5057    2.7478    2.0461 N   0  0  0  0  0  0  0  0  0  0  0  0
    5.3911    3.2101    2.5196 N   0  0  0  0  0  0  0  0  0  0  0  0
   -1.4044   -0.5694   -1.3672 C   0  0  0  0  0  0  0  0  0  0  0  0
   -2.6938   -0.1329   -1.5051 C   0  0  0  0  0  0  0  0  0  0  0  0
   -3.5637   -0.5516   -1.9949 H   0  0  0  0  0  0  0  0  0  0  0  0
   -2.6983    0.5742   -0.3004 C   0  0  0  0  0  0  0  0  0  0  0  0
   -3.5345    0.7254    0.3761 H   0  0  0  0  0  0  0  0  0  0  0  0
   -0.5729    0.1738   -0.5551 C   0  0  0  0  0  0  0  0  0  0  0  0
    0.4943    0.3234   -0.4578 H   0  0  0  0  0  0  0  0  0  0  0  0
   -1.4376    0.7733    0.2687 O   0  0  0  0  0  0  0  0  0  0  0  0
  1  2  3  0  0  0  0
  3  8  1  0  0  0  0
  4  3  1  0  0  0  0
  4  6  1  0  0  0  0
  5  4  1  0  0  0  0
  6 10  1  0  0  0  0
  6  7  1  0  0  0  0
  8  9  1  0  0  0  0
  8 10  1  0  0  0  0
M  RAD  4   3   3   4   2   6   2   8   2
M  END
