Coordinates from ORCA-job Furan-3-N2+-scan-d09-169-n800
 OpenBabel09191814033D

 10  9  0  0  0  0  0  0  0  0999 V2000
    2.6249    1.8768    0.6470 N   0  0  0  0  0  0  0  0  0  0  0  0
    3.7042    2.0384    0.8197 N   0  0  0  0  0  0  0  0  0  0  0  0
   -0.5387   -0.1018    0.0203 C   0  0  0  0  0  0  0  0  0  0  0  0
   -1.5214   -0.6374   -0.7676 C   0  0  0  0  0  0  0  0  0  0  0  0
   -1.8177   -1.6560   -0.9827 H   0  0  0  0  0  0  0  0  0  0  0  0
   -2.3878    0.4473   -0.6145 C   0  0  0  0  0  0  0  0  0  0  0  0
   -3.4731    0.4287   -0.5804 H   0  0  0  0  0  0  0  0  0  0  0  0
   -0.5261    1.2712    0.1585 C   0  0  0  0  0  0  0  0  0  0  0  0
    0.2232    2.0115    0.4047 H   0  0  0  0  0  0  0  0  0  0  0  0
   -1.8015    1.5953   -0.0750 O   0  0  0  0  0  0  0  0  0  0  0  0
  1  2  3  0  0  0  0
  3  8  1  0  0  0  0
  4  6  1  0  0  0  0
  4  3  1  0  0  0  0
  5  4  1  0  0  0  0
  6  7  1  0  0  0  0
  6 10  1  0  0  0  0
  8  9  1  0  0  0  0
 10  8  1  0  0  0  0
M  RAD  4   3   3   4   2   6   2   8   2
M  END
