Coordinates from ORCA-job Furan-3-N2+-scan-d09-169-n800
 OpenBabel09191814033D

 10  9  0  0  0  0  0  0  0  0999 V2000
    2.9524    1.9522    1.1908 N   0  0  0  0  0  0  0  0  0  0  0  0
    3.8400    2.4043    1.6689 N   0  0  0  0  0  0  0  0  0  0  0  0
   -0.8646   -0.2853   -1.1060 C   0  0  0  0  0  0  0  0  0  0  0  0
   -2.1758    0.0001   -1.3743 C   0  0  0  0  0  0  0  0  0  0  0  0
   -2.9326   -0.5048   -1.9609 H   0  0  0  0  0  0  0  0  0  0  0  0
   -2.3913    0.6675   -0.1668 C   0  0  0  0  0  0  0  0  0  0  0  0
   -3.3054    0.7009    0.4185 H   0  0  0  0  0  0  0  0  0  0  0  0
   -0.2156    0.5313   -0.1998 C   0  0  0  0  0  0  0  0  0  0  0  0
    0.8090    0.8093    0.0240 H   0  0  0  0  0  0  0  0  0  0  0  0
   -1.2299    0.9985    0.5357 O   0  0  0  0  0  0  0  0  0  0  0  0
  1  2  3  0  0  0  0
  3  8  1  0  0  0  0
  4  3  1  0  0  0  0
  4  6  1  0  0  0  0
  5  4  1  0  0  0  0
  6  7  1  0  0  0  0
  6 10  1  0  0  0  0
  8  9  1  0  0  0  0
  8 10  1  0  0  0  0
M  RAD  4   3   3   4   2   6   2   8   2
M  END
