Coordinates from ORCA-job Furan-3-N2+-scan-d09-169-n800
 OpenBabel09191814033D

 10  9  0  0  0  0  0  0  0  0999 V2000
    4.9297    2.9518    2.2628 N   0  0  0  0  0  0  0  0  0  0  0  0
    5.8124    3.4165    2.7391 N   0  0  0  0  0  0  0  0  0  0  0  0
   -1.5419   -0.6364   -1.4281 C   0  0  0  0  0  0  0  0  0  0  0  0
   -2.8238   -0.1715   -1.5406 C   0  0  0  0  0  0  0  0  0  0  0  0
   -3.7137   -0.5731   -2.0085 H   0  0  0  0  0  0  0  0  0  0  0  0
   -2.7856    0.5429   -0.3407 C   0  0  0  0  0  0  0  0  0  0  0  0
   -3.6030    0.7173    0.3529 H   0  0  0  0  0  0  0  0  0  0  0  0
   -0.6760    0.0922   -0.6393 C   0  0  0  0  0  0  0  0  0  0  0  0
    0.3962    0.2178   -0.5668 H   0  0  0  0  0  0  0  0  0  0  0  0
   -1.5084    0.7164    0.1993 O   0  0  0  0  0  0  0  0  0  0  0  0
  1  2  3  0  0  0  0
  3  8  1  0  0  0  0
  4  3  1  0  0  0  0
  4  6  1  0  0  0  0
  5  4  1  0  0  0  0
  6 10  1  0  0  0  0
  6  7  1  0  0  0  0
  8  9  1  0  0  0  0
  8 10  1  0  0  0  0
M  RAD  4   3   3   4   2   6   2   8   2
M  END
