Coordinates from ORCA-job Furan-3-N2+-scan-d09-169-n800
 OpenBabel09191814033D

 10  9  0  0  0  0  0  0  0  0999 V2000
    3.6709    2.3096    1.5746 N   0  0  0  0  0  0  0  0  0  0  0  0
    4.5576    2.7675    2.0496 N   0  0  0  0  0  0  0  0  0  0  0  0
   -1.1039   -0.4107   -1.2234 C   0  0  0  0  0  0  0  0  0  0  0  0
   -2.4095   -0.0624   -1.4387 C   0  0  0  0  0  0  0  0  0  0  0  0
   -3.2150   -0.5326   -1.9884 H   0  0  0  0  0  0  0  0  0  0  0  0
   -2.5401    0.6227   -0.2285 C   0  0  0  0  0  0  0  0  0  0  0  0
   -3.4259    0.7043    0.3946 H   0  0  0  0  0  0  0  0  0  0  0  0
   -0.3793    0.3761   -0.3510 C   0  0  0  0  0  0  0  0  0  0  0  0
    0.6661    0.5996   -0.1810 H   0  0  0  0  0  0  0  0  0  0  0  0
   -1.3351    0.8999    0.4225 O   0  0  0  0  0  0  0  0  0  0  0  0
  1  2  3  0  0  0  0
  3  8  1  0  0  0  0
  4  3  1  0  0  0  0
  4  6  1  0  0  0  0
  5  4  1  0  0  0  0
  6  7  1  0  0  0  0
  6 10  1  0  0  0  0
  8  9  1  0  0  0  0
  8 10  1  0  0  0  0
M  RAD  4   3   3   4   2   6   2   8   2
M  END
