Coordinates from ORCA-job Furan-3-N2+-scan-d09-169-n800
 OpenBabel09191814033D

 10  9  0  0  0  0  0  0  0  0999 V2000
    7.3326    4.1276    3.4643 N   0  0  0  0  0  0  0  0  0  0  0  0
    8.2336    4.5556    3.9408 N   0  0  0  0  0  0  0  0  0  0  0  0
   -2.3043   -0.9830   -1.7584 C   0  0  0  0  0  0  0  0  0  0  0  0
   -3.5270   -0.3687   -1.7582 C   0  0  0  0  0  0  0  0  0  0  0  0
   -4.4987   -0.6635   -2.1337 H   0  0  0  0  0  0  0  0  0  0  0  0
   -3.2903    0.3436   -0.5801 C   0  0  0  0  0  0  0  0  0  0  0  0
   -4.0115    0.6198    0.1836 H   0  0  0  0  0  0  0  0  0  0  0  0
   -1.2871   -0.3589   -1.0669 C   0  0  0  0  0  0  0  0  0  0  0  0
   -0.2056   -0.3646   -1.0964 H   0  0  0  0  0  0  0  0  0  0  0  0
   -1.9559    0.3659   -0.1651 O   0  0  0  0  0  0  0  0  0  0  0  0
  1  2  3  0  0  0  0
  3  4  1  0  0  0  0
  3  8  1  0  0  0  0
  4  6  1  0  0  0  0
  5  4  1  0  0  0  0
  6 10  1  0  0  0  0
  6  7  1  0  0  0  0
  8 10  1  0  0  0  0
  9  8  1  0  0  0  0
M  RAD  4   3   3   4   2   6   2   8   2
M  END
