Coordinates from ORCA-job Furan-3-N2+-scan-d09-169-n800
 OpenBabel09191814033D

 10  9  0  0  0  0  0  0  0  0999 V2000
    2.0818    0.8245    0.2343 N   0  0  0  0  0  0  0  0  0  0  0  0
    3.1796    0.8192    0.3523 N   0  0  0  0  0  0  0  0  0  0  0  0
   -0.2653    0.8098   -0.0292 C   0  0  0  0  0  0  0  0  0  0  0  0
   -0.8937   -0.2925   -0.5851 C   0  0  0  0  0  0  0  0  0  0  0  0
   -0.5539   -1.2425   -0.9676 H   0  0  0  0  0  0  0  0  0  0  0  0
   -2.1575    0.2386   -0.4887 C   0  0  0  0  0  0  0  0  0  0  0  0
   -3.1211   -0.1626   -0.7714 H   0  0  0  0  0  0  0  0  0  0  0  0
   -0.9036    1.9079    0.3859 C   0  0  0  0  0  0  0  0  0  0  0  0
   -0.7099    2.8690    0.8317 H   0  0  0  0  0  0  0  0  0  0  0  0
   -2.1704    1.5025    0.0679 O   0  0  0  0  0  0  0  0  0  0  0  0
  1  2  3  0  0  0  0
  3  8  2  0  0  0  0
  4  6  2  0  0  0  0
  4  3  1  0  0  0  0
  5  4  1  0  0  0  0
  6 10  1  0  0  0  0
  7  6  1  0  0  0  0
  8  9  1  0  0  0  0
 10  8  1  0  0  0  0
M  RAD  1   3   2
M  END
