Coordinates from ORCA-job Furan-3-N2+-scan-d09-169-n800
 OpenBabel09191814033D

 10  9  0  0  0  0  0  0  0  0999 V2000
    7.6575    4.2851    3.6306 N   0  0  0  0  0  0  0  0  0  0  0  0
    8.5595    4.7120    4.1061 N   0  0  0  0  0  0  0  0  0  0  0  0
   -2.4107   -1.0316   -1.8004 C   0  0  0  0  0  0  0  0  0  0  0  0
   -3.6227   -0.3968   -1.7841 C   0  0  0  0  0  0  0  0  0  0  0  0
   -4.6051   -0.6773   -2.1422 H   0  0  0  0  0  0  0  0  0  0  0  0
   -3.3552    0.3176   -0.6138 C   0  0  0  0  0  0  0  0  0  0  0  0
   -4.0593    0.6095    0.1599 H   0  0  0  0  0  0  0  0  0  0  0  0
   -1.3722   -0.4211   -1.1287 C   0  0  0  0  0  0  0  0  0  0  0  0
   -0.2917   -0.4431   -1.1769 H   0  0  0  0  0  0  0  0  0  0  0  0
   -2.0142    0.3196   -0.2203 O   0  0  0  0  0  0  0  0  0  0  0  0
  1  2  3  0  0  0  0
  3  4  1  0  0  0  0
  3  8  1  0  0  0  0
  4  6  1  0  0  0  0
  5  4  1  0  0  0  0
  6 10  1  0  0  0  0
  6  7  1  0  0  0  0
  8 10  1  0  0  0  0
  9  8  1  0  0  0  0
M  RAD  4   3   3   4   2   6   2   8   2
M  END
