Coordinates from ORCA-job Furan-3-N2+-scan-d09-169-n800
 OpenBabel09191814033D

 10  9  0  0  0  0  0  0  0  0999 V2000
    9.5755    5.2175    4.5882 N   0  0  0  0  0  0  0  0  0  0  0  0
   10.4828    5.6377    5.0598 N   0  0  0  0  0  0  0  0  0  0  0  0
   -3.0232   -1.2873   -2.0561 C   0  0  0  0  0  0  0  0  0  0  0  0
   -4.1613   -0.5341   -1.9598 C   0  0  0  0  0  0  0  0  0  0  0  0
   -5.1889   -0.7130   -2.2502 H   0  0  0  0  0  0  0  0  0  0  0  0
   -3.7451    0.1448   -0.8120 C   0  0  0  0  0  0  0  0  0  0  0  0
   -4.3626    0.5026    0.0068 H   0  0  0  0  0  0  0  0  0  0  0  0
   -1.8856   -0.7870   -1.4579 C   0  0  0  0  0  0  0  0  0  0  0  0
   -0.8185   -0.9179   -1.5786 H   0  0  0  0  0  0  0  0  0  0  0  0
   -2.3872    0.0106   -0.5101 O   0  0  0  0  0  0  0  0  0  0  0  0
  1  2  3  0  0  0  0
  3  4  1  0  0  0  0
  3  8  1  0  0  0  0
  4  6  1  0  0  0  0
  5  4  1  0  0  0  0
  6 10  1  0  0  0  0
  6  7  1  0  0  0  0
  8 10  1  0  0  0  0
  9  8  1  0  0  0  0
M  RAD  4   3   3   4   2   6   2   8   2
M  END
