Coordinates from ORCA-job Furan-3-N2+-scan-d09-169-n800
 OpenBabel09191814033D

 10  9  0  0  0  0  0  0  0  0999 V2000
    4.2556    2.6184    1.9073 N   0  0  0  0  0  0  0  0  0  0  0  0
    5.1401    3.0807    2.3825 N   0  0  0  0  0  0  0  0  0  0  0  0
   -1.3163   -0.5244   -1.3263 C   0  0  0  0  0  0  0  0  0  0  0  0
   -2.6111   -0.1118   -1.4849 C   0  0  0  0  0  0  0  0  0  0  0  0
   -3.4644   -0.5448   -1.9914 H   0  0  0  0  0  0  0  0  0  0  0  0
   -2.6500    0.5902   -0.2779 C   0  0  0  0  0  0  0  0  0  0  0  0
   -3.5005    0.7227    0.3845 H   0  0  0  0  0  0  0  0  0  0  0  0
   -0.5132    0.2313   -0.4971 C   0  0  0  0  0  0  0  0  0  0  0  0
    0.5491    0.4009   -0.3804 H   0  0  0  0  0  0  0  0  0  0  0  0
   -1.4034    0.8109    0.3138 O   0  0  0  0  0  0  0  0  0  0  0  0
  1  2  3  0  0  0  0
  3  8  1  0  0  0  0
  4  3  1  0  0  0  0
  4  6  1  0  0  0  0
  5  4  1  0  0  0  0
  6 10  1  0  0  0  0
  6  7  1  0  0  0  0
  8  9  1  0  0  0  0
  8 10  1  0  0  0  0
M  RAD  4   3   3   4   2   6   2   8   2
M  END
