Coordinates from ORCA-job Furan-3-N2+-scan-d09-169-n800
 OpenBabel09191814033D

 10  9  0  0  0  0  0  0  0  0999 V2000
    8.8453    4.8691    4.2299 N   0  0  0  0  0  0  0  0  0  0  0  0
    9.7514    5.2954    4.6981 N   0  0  0  0  0  0  0  0  0  0  0  0
   -2.8002   -1.1913   -1.9666 C   0  0  0  0  0  0  0  0  0  0  0  0
   -3.9606   -0.4702   -1.8931 C   0  0  0  0  0  0  0  0  0  0  0  0
   -4.9757   -0.6752   -2.2088 H   0  0  0  0  0  0  0  0  0  0  0  0
   -3.5905    0.2127   -0.7320 C   0  0  0  0  0  0  0  0  0  0  0  0
   -4.2368    0.5484    0.0738 H   0  0  0  0  0  0  0  0  0  0  0  0
   -1.6914   -0.6640   -1.3383 C   0  0  0  0  0  0  0  0  0  0  0  0
   -0.6186   -0.7644   -1.4347 H   0  0  0  0  0  0  0  0  0  0  0  0
   -2.2370    0.1135   -0.3983 O   0  0  0  0  0  0  0  0  0  0  0  0
  1  2  3  0  0  0  0
  3  4  1  0  0  0  0
  3  8  1  0  0  0  0
  4  6  1  0  0  0  0
  5  4  1  0  0  0  0
  6 10  1  0  0  0  0
  6  7  1  0  0  0  0
  8 10  1  0  0  0  0
  9  8  1  0  0  0  0
M  RAD  4   3   3   4   2   6   2   8   2
M  END
