Coordinates from ORCA-job Furan-3-N2+-scan-d09-169-n800
 OpenBabel09191814033D

 10  9  0  0  0  0  0  0  0  0999 V2000
    2.6203    1.9563    0.6711 N   0  0  0  0  0  0  0  0  0  0  0  0
    3.6888    2.1646    0.8593 N   0  0  0  0  0  0  0  0  0  0  0  0
   -0.5579   -0.1720   -0.0017 C   0  0  0  0  0  0  0  0  0  0  0  0
   -1.5759   -0.6585   -0.7768 C   0  0  0  0  0  0  0  0  0  0  0  0
   -1.9232   -1.6614   -0.9895 H   0  0  0  0  0  0  0  0  0  0  0  0
   -2.3879    0.4653   -0.6091 C   0  0  0  0  0  0  0  0  0  0  0  0
   -3.4722    0.4980   -0.5589 H   0  0  0  0  0  0  0  0  0  0  0  0
   -0.4784    1.1987    0.1379 C   0  0  0  0  0  0  0  0  0  0  0  0
    0.3125    1.8995    0.3741 H   0  0  0  0  0  0  0  0  0  0  0  0
   -1.7401    1.5834   -0.0765 O   0  0  0  0  0  0  0  0  0  0  0  0
  1  2  3  0  0  0  0
  3  8  1  0  0  0  0
  4  6  1  0  0  0  0
  4  3  1  0  0  0  0
  5  4  1  0  0  0  0
  6  7  1  0  0  0  0
  6 10  1  0  0  0  0
  8  9  1  0  0  0  0
 10  8  1  0  0  0  0
M  RAD  4   3   3   4   2   6   2   8   2
M  END
