Coordinates from ORCA-job Furan-3-N2+-scan-d09-169-n800
 OpenBabel09191814033D

 10  9  0  0  0  0  0  0  0  0999 V2000
    4.6171    2.8014    2.1030 N   0  0  0  0  0  0  0  0  0  0  0  0
    5.5001    3.2656    2.5792 N   0  0  0  0  0  0  0  0  0  0  0  0
   -1.4415   -0.5879   -1.3837 C   0  0  0  0  0  0  0  0  0  0  0  0
   -2.7288   -0.1429   -1.5138 C   0  0  0  0  0  0  0  0  0  0  0  0
   -3.6049   -0.5566   -1.9970 H   0  0  0  0  0  0  0  0  0  0  0  0
   -2.7204    0.5667   -0.3106 C   0  0  0  0  0  0  0  0  0  0  0  0
   -3.5510    0.7250    0.3711 H   0  0  0  0  0  0  0  0  0  0  0  0
   -0.5995    0.1510   -0.5787 C   0  0  0  0  0  0  0  0  0  0  0  0
    0.4693    0.2936   -0.4891 H   0  0  0  0  0  0  0  0  0  0  0  0
   -1.4545    0.7582    0.2497 O   0  0  0  0  0  0  0  0  0  0  0  0
  1  2  3  0  0  0  0
  3  8  1  0  0  0  0
  4  3  1  0  0  0  0
  4  6  1  0  0  0  0
  5  4  1  0  0  0  0
  6 10  1  0  0  0  0
  6  7  1  0  0  0  0
  8  9  1  0  0  0  0
  8 10  1  0  0  0  0
M  RAD  4   3   3   4   2   6   2   8   2
M  END
