Coordinates from ORCA-job Furan-3-N2+-scan-d09-169-n800
 OpenBabel09191814033D

 10  9  0  0  0  0  0  0  0  0999 V2000
    7.5830    4.2485    3.5924 N   0  0  0  0  0  0  0  0  0  0  0  0
    8.4849    4.6754    4.0683 N   0  0  0  0  0  0  0  0  0  0  0  0
   -2.3857   -1.0204   -1.7904 C   0  0  0  0  0  0  0  0  0  0  0  0
   -3.6008   -0.3915   -1.7779 C   0  0  0  0  0  0  0  0  0  0  0  0
   -4.5807   -0.6764   -2.1395 H   0  0  0  0  0  0  0  0  0  0  0  0
   -3.3408    0.3236   -0.6064 C   0  0  0  0  0  0  0  0  0  0  0  0
   -4.0489    0.6119    0.1650 H   0  0  0  0  0  0  0  0  0  0  0  0
   -1.3524   -0.4052   -1.1149 C   0  0  0  0  0  0  0  0  0  0  0  0
   -0.2716   -0.4238   -1.1582 H   0  0  0  0  0  0  0  0  0  0  0  0
   -2.0010    0.3319   -0.2084 O   0  0  0  0  0  0  0  0  0  0  0  0
  1  2  3  0  0  0  0
  3  4  1  0  0  0  0
  3  8  1  0  0  0  0
  4  6  1  0  0  0  0
  5  4  1  0  0  0  0
  6 10  1  0  0  0  0
  6  7  1  0  0  0  0
  8 10  1  0  0  0  0
  9  8  1  0  0  0  0
M  RAD  4   3   3   4   2   6   2   8   2
M  END
