Coordinates from ORCA-job Furan-3-N2+-scan-d09-169-n800
 OpenBabel09191814033D

 10  9  0  0  0  0  0  0  0  0999 V2000
    2.5801    1.6012    0.5074 N   0  0  0  0  0  0  0  0  0  0  0  0
    3.6688    1.7732    0.5870 N   0  0  0  0  0  0  0  0  0  0  0  0
   -0.5256    0.0587    0.1787 C   0  0  0  0  0  0  0  0  0  0  0  0
   -1.3524   -0.5665   -0.7156 C   0  0  0  0  0  0  0  0  0  0  0  0
   -1.5191   -1.6080   -0.9587 H   0  0  0  0  0  0  0  0  0  0  0  0
   -2.3325    0.4271   -0.6731 C   0  0  0  0  0  0  0  0  0  0  0  0
   -3.4071    0.3036   -0.7687 H   0  0  0  0  0  0  0  0  0  0  0  0
   -0.6655    1.4246    0.3104 C   0  0  0  0  0  0  0  0  0  0  0  0
   -0.0313    2.2361    0.6377 H   0  0  0  0  0  0  0  0  0  0  0  0
   -1.9295    1.6241   -0.0750 O   0  0  0  0  0  0  0  0  0  0  0  0
  1  2  3  0  0  0  0
  3  8  1  0  0  0  0
  4  6  1  0  0  0  0
  4  3  1  0  0  0  0
  5  4  1  0  0  0  0
  6 10  1  0  0  0  0
  7  6  1  0  0  0  0
  8  9  1  0  0  0  0
 10  8  1  0  0  0  0
M  RAD  4   3   3   4   2   6   2   8   2
M  END
