Coordinates from ORCA-job Furan-3-N2+-scan-d09-169-n800
 OpenBabel09191814033D

 10  9  0  0  0  0  0  0  0  0999 V2000
    2.1258    0.8252    0.2394 N   0  0  0  0  0  0  0  0  0  0  0  0
    3.2237    0.8204    0.3574 N   0  0  0  0  0  0  0  0  0  0  0  0
   -0.2809    0.8098   -0.0309 C   0  0  0  0  0  0  0  0  0  0  0  0
   -0.9044   -0.2941   -0.5868 C   0  0  0  0  0  0  0  0  0  0  0  0
   -0.5635   -1.2438   -0.9689 H   0  0  0  0  0  0  0  0  0  0  0  0
   -2.1680    0.2379   -0.4904 C   0  0  0  0  0  0  0  0  0  0  0  0
   -3.1317   -0.1634   -0.7734 H   0  0  0  0  0  0  0  0  0  0  0  0
   -0.9141    1.9094    0.3855 C   0  0  0  0  0  0  0  0  0  0  0  0
   -0.7197    2.8704    0.8312 H   0  0  0  0  0  0  0  0  0  0  0  0
   -2.1812    1.5023    0.0670 O   0  0  0  0  0  0  0  0  0  0  0  0
  1  2  3  0  0  0  0
  3  8  2  0  0  0  0
  4  6  2  0  0  0  0
  4  3  1  0  0  0  0
  5  4  1  0  0  0  0
  6 10  1  0  0  0  0
  7  6  1  0  0  0  0
  8  9  1  0  0  0  0
 10  8  1  0  0  0  0
M  RAD  1   3   2
M  END
