Coordinates from ORCA-job Furan-3-N2+-scan-d09-169-n800
 OpenBabel09191814033D

 10  9  0  0  0  0  0  0  0  0999 V2000
    8.3535    4.6301    3.9822 N   0  0  0  0  0  0  0  0  0  0  0  0
    9.2564    5.0589    4.4544 N   0  0  0  0  0  0  0  0  0  0  0  0
   -2.6433   -1.1252   -1.9022 C   0  0  0  0  0  0  0  0  0  0  0  0
   -3.8223   -0.4329   -1.8488 C   0  0  0  0  0  0  0  0  0  0  0  0
   -4.8261   -0.6624   -2.1831 H   0  0  0  0  0  0  0  0  0  0  0  0
   -3.4902    0.2569   -0.6803 C   0  0  0  0  0  0  0  0  0  0  0  0
   -4.1590    0.5752    0.1140 H   0  0  0  0  0  0  0  0  0  0  0  0
   -1.5594   -0.5717   -1.2533 C   0  0  0  0  0  0  0  0  0  0  0  0
   -0.4828   -0.6454   -1.3304 H   0  0  0  0  0  0  0  0  0  0  0  0
   -2.1409    0.1906   -0.3224 O   0  0  0  0  0  0  0  0  0  0  0  0
  1  2  3  0  0  0  0
  3  4  1  0  0  0  0
  3  8  1  0  0  0  0
  4  6  1  0  0  0  0
  5  4  1  0  0  0  0
  6 10  1  0  0  0  0
  6  7  1  0  0  0  0
  8 10  1  0  0  0  0
  9  8  1  0  0  0  0
M  RAD  4   3   3   4   2   6   2   8   2
M  END
