Coordinates from ORCA-job Furan-3-N2+-scan-d09-169-n800
 OpenBabel09191814033D

 10  9  0  0  0  0  0  0  0  0999 V2000
    2.0675    0.8243    0.2326 N   0  0  0  0  0  0  0  0  0  0  0  0
    3.1653    0.8189    0.3504 N   0  0  0  0  0  0  0  0  0  0  0  0
   -0.2597    0.8098   -0.0286 C   0  0  0  0  0  0  0  0  0  0  0  0
   -0.8903   -0.2920   -0.5843 C   0  0  0  0  0  0  0  0  0  0  0  0
   -0.5510   -1.2420   -0.9668 H   0  0  0  0  0  0  0  0  0  0  0  0
   -2.1540    0.2390   -0.4884 C   0  0  0  0  0  0  0  0  0  0  0  0
   -3.1177   -0.1621   -0.7712 H   0  0  0  0  0  0  0  0  0  0  0  0
   -0.9004    1.9072    0.3860 C   0  0  0  0  0  0  0  0  0  0  0  0
   -0.7069    2.8684    0.8318 H   0  0  0  0  0  0  0  0  0  0  0  0
   -2.1670    1.5024    0.0686 O   0  0  0  0  0  0  0  0  0  0  0  0
  1  2  3  0  0  0  0
  3  8  2  0  0  0  0
  4  6  2  0  0  0  0
  4  3  1  0  0  0  0
  5  4  1  0  0  0  0
  6 10  1  0  0  0  0
  7  6  1  0  0  0  0
  8  9  1  0  0  0  0
 10  8  1  0  0  0  0
M  RAD  1   3   2
M  END
