Coordinates from ORCA-job Furan-3-N2+-scan-d09-169-n800
 OpenBabel09191814033D

 10  9  0  0  0  0  0  0  0  0999 V2000
   10.0559    5.4457    4.8119 N   0  0  0  0  0  0  0  0  0  0  0  0
   10.9565    5.8551    5.3052 N   0  0  0  0  0  0  0  0  0  0  0  0
   -3.1660   -1.3519   -2.1100 C   0  0  0  0  0  0  0  0  0  0  0  0
   -4.2922   -0.5826   -2.0012 C   0  0  0  0  0  0  0  0  0  0  0  0
   -5.3268   -0.7503   -2.2725 H   0  0  0  0  0  0  0  0  0  0  0  0
   -3.8477    0.1008   -0.8667 C   0  0  0  0  0  0  0  0  0  0  0  0
   -4.4463    0.4738   -0.0408 H   0  0  0  0  0  0  0  0  0  0  0  0
   -2.0120   -0.8611   -1.5356 C   0  0  0  0  0  0  0  0  0  0  0  0
   -0.9489   -1.0069   -1.6735 H   0  0  0  0  0  0  0  0  0  0  0  0
   -2.4865   -0.0485   -0.5868 O   0  0  0  0  0  0  0  0  0  0  0  0
  1  2  3  0  0  0  0
  3  4  1  0  0  0  0
  3  8  1  0  0  0  0
  4  6  1  0  0  0  0
  5  4  1  0  0  0  0
  6 10  1  0  0  0  0
  6  7  1  0  0  0  0
  8 10  1  0  0  0  0
  9  8  1  0  0  0  0
M  RAD  4   3   3   4   2   6   2   8   2
M  END
