Coordinates from ORCA-job Furan-3-N2+-scan-d09-169-n800
 OpenBabel09191814033D

 10  9  0  0  0  0  0  0  0  0999 V2000
    5.7480    3.3473    2.6595 N   0  0  0  0  0  0  0  0  0  0  0  0
    6.6381    3.7919    3.1411 N   0  0  0  0  0  0  0  0  0  0  0  0
   -1.7891   -0.7495   -1.5389 C   0  0  0  0  0  0  0  0  0  0  0  0
   -3.0574   -0.2425   -1.6199 C   0  0  0  0  0  0  0  0  0  0  0  0
   -3.9714   -0.6147   -2.0650 H   0  0  0  0  0  0  0  0  0  0  0  0
   -2.9663    0.4715   -0.4226 C   0  0  0  0  0  0  0  0  0  0  0  0
   -3.7601    0.6730    0.2907 H   0  0  0  0  0  0  0  0  0  0  0  0
   -0.8811   -0.0485   -0.7726 C   0  0  0  0  0  0  0  0  0  0  0  0
    0.1961    0.0420   -0.7272 H   0  0  0  0  0  0  0  0  0  0  0  0
   -1.6709    0.6036    0.0851 O   0  0  0  0  0  0  0  0  0  0  0  0
  1  2  3  0  0  0  0
  3  8  1  0  0  0  0
  4  3  1  0  0  0  0
  4  6  1  0  0  0  0
  5  4  1  0  0  0  0
  6 10  1  0  0  0  0
  6  7  1  0  0  0  0
  8  9  1  0  0  0  0
  8 10  1  0  0  0  0
M  RAD  4   3   3   4   2   6   2   8   2
M  END
