Coordinates from ORCA-job Furan-3-N2+-scan-d09-169-n800
 OpenBabel09191814033D

 10  9  0  0  0  0  0  0  0  0999 V2000
    1.9688    0.8232    0.2214 N   0  0  0  0  0  0  0  0  0  0  0  0
    3.0665    0.8164    0.3387 N   0  0  0  0  0  0  0  0  0  0  0  0
   -0.2190    0.8095   -0.0243 C   0  0  0  0  0  0  0  0  0  0  0  0
   -0.8669   -0.2871   -0.5798 C   0  0  0  0  0  0  0  0  0  0  0  0
   -0.5311   -1.2379   -0.9631 H   0  0  0  0  0  0  0  0  0  0  0  0
   -2.1307    0.2412   -0.4846 C   0  0  0  0  0  0  0  0  0  0  0  0
   -3.0943   -0.1595   -0.7671 H   0  0  0  0  0  0  0  0  0  0  0  0
   -0.8780    1.9019    0.3861 C   0  0  0  0  0  0  0  0  0  0  0  0
   -0.6865    2.8636    0.8319 H   0  0  0  0  0  0  0  0  0  0  0  0
   -2.1429    1.5027    0.0710 O   0  0  0  0  0  0  0  0  0  0  0  0
  1  2  3  0  0  0  0
  3  8  2  0  0  0  0
  4  6  2  0  0  0  0
  4  3  1  0  0  0  0
  5  4  1  0  0  0  0
  6 10  1  0  0  0  0
  7  6  1  0  0  0  0
  8  9  1  0  0  0  0
 10  8  1  0  0  0  0
M  RAD  1   3   2
M  END
