Coordinates from ORCA-job Furan-3-N2+-scan-d09-169-n800
 OpenBabel09191814033D

 10  9  0  0  0  0  0  0  0  0999 V2000
    7.6452    4.2788    3.6243 N   0  0  0  0  0  0  0  0  0  0  0  0
    8.5472    4.7057    4.0999 N   0  0  0  0  0  0  0  0  0  0  0  0
   -2.4065   -1.0300   -1.7984 C   0  0  0  0  0  0  0  0  0  0  0  0
   -3.6190   -0.3964   -1.7829 C   0  0  0  0  0  0  0  0  0  0  0  0
   -4.6010   -0.6780   -2.1415 H   0  0  0  0  0  0  0  0  0  0  0  0
   -3.3529    0.3187   -0.6128 C   0  0  0  0  0  0  0  0  0  0  0  0
   -4.0577    0.6100    0.1606 H   0  0  0  0  0  0  0  0  0  0  0  0
   -1.3690   -0.4181   -1.1264 C   0  0  0  0  0  0  0  0  0  0  0  0
   -0.2883   -0.4390   -1.1741 H   0  0  0  0  0  0  0  0  0  0  0  0
   -2.0121    0.3222   -0.2186 O   0  0  0  0  0  0  0  0  0  0  0  0
  1  2  3  0  0  0  0
  3  4  1  0  0  0  0
  3  8  1  0  0  0  0
  4  6  1  0  0  0  0
  5  4  1  0  0  0  0
  6 10  1  0  0  0  0
  6  7  1  0  0  0  0
  8 10  1  0  0  0  0
  9  8  1  0  0  0  0
M  RAD  4   3   3   4   2   6   2   8   2
M  END
