Coordinates from ORCA-job Furan-3-N2+-scan-d09-169-n800
 OpenBabel09191814033D

 10  9  0  0  0  0  0  0  0  0999 V2000
    5.2643    3.1065    2.4264 N   0  0  0  0  0  0  0  0  0  0  0  0
    6.1464    3.5717    2.9032 N   0  0  0  0  0  0  0  0  0  0  0  0
   -1.6424   -0.6832   -1.4720 C   0  0  0  0  0  0  0  0  0  0  0  0
   -2.9199   -0.2036   -1.5712 C   0  0  0  0  0  0  0  0  0  0  0  0
   -3.8199   -0.5962   -2.0272 H   0  0  0  0  0  0  0  0  0  0  0  0
   -2.8592    0.5145   -0.3745 C   0  0  0  0  0  0  0  0  0  0  0  0
   -3.6664    0.7011    0.3279 H   0  0  0  0  0  0  0  0  0  0  0  0
   -0.7588    0.0377   -0.6960 C   0  0  0  0  0  0  0  0  0  0  0  0
    0.3156    0.1508   -0.6366 H   0  0  0  0  0  0  0  0  0  0  0  0
   -1.5738    0.6747    0.1500 O   0  0  0  0  0  0  0  0  0  0  0  0
  1  2  3  0  0  0  0
  3  8  1  0  0  0  0
  4  3  1  0  0  0  0
  4  6  1  0  0  0  0
  5  4  1  0  0  0  0
  6 10  1  0  0  0  0
  6  7  1  0  0  0  0
  8  9  1  0  0  0  0
  8 10  1  0  0  0  0
M  RAD  4   3   3   4   2   6   2   8   2
M  END
