Coordinates from ORCA-job 4-NO2-C6H3-N2-B3LYPG-aug-cc-pVDZ-scan-d09-49-n400
 OpenBabel11091809093D

 14 13  0  0  0  0  0  0  0  0999 V2000
   -2.6394   -0.4013   -0.7215 C   0  0  0  0  0  0  0  0  0  0  0  0
   -1.2677   -0.4871   -0.8750 C   0  0  0  0  0  0  0  0  0  0  0  0
   -0.4166    0.3377   -0.4711 C   0  0  0  0  0  0  0  0  0  0  0  0
   -0.6247    1.5236    0.2188 C   0  0  0  0  0  0  0  0  0  0  0  0
   -2.0034    1.7206    0.4359 C   0  0  0  0  0  0  0  0  0  0  0  0
   -2.9573    0.7874   -0.0217 C   0  0  0  0  0  0  0  0  0  0  0  0
   -3.4058   -1.0939   -1.0567 H   0  0  0  0  0  0  0  0  0  0  0  0
    0.1282    2.2289    0.5622 H   0  0  0  0  0  0  0  0  0  0  0  0
   -2.3546    2.6042    0.9649 H   0  0  0  0  0  0  0  0  0  0  0  0
   -4.3870    1.0625    0.2438 N   0  0  0  0  0  0  0  0  0  0  0  0
   -5.2062    0.2417   -0.1610 O   0  0  0  0  0  0  0  0  0  0  0  0
   -4.6739    2.0916    0.8495 O   0  0  0  0  0  0  0  0  0  0  0  0
    3.2699    1.9391    0.1560 N   0  0  0  0  0  0  0  0  0  0  0  0
    4.2579    1.5485   -0.1446 N   0  0  0  0  0  0  0  0  0  0  0  0
  1  6  1  0  0  0  0
  2  1  2  0  0  0  0
  2  3  1  0  0  0  0
  3  4  2  0  0  0  0
  4  5  1  0  0  0  0
  4  8  1  0  0  0  0
  5  9  1  0  0  0  0
  6 10  1  0  0  0  0
  6  5  2  0  0  0  0
  7  1  1  0  0  0  0
 10 12  2  0  0  0  0
 11 10  2  0  0  0  0
 14 13  3  0  0  0  0
M  RAD  2   2   2   3   2
M  END
