Coordinates from ORCA-job 4-NO2-C6H3-N2-B3LYPG-aug-cc-pVDZ-scan-d09-49-n400
 OpenBabel11091809093D

 14 13  0  0  0  0  0  0  0  0999 V2000
   -2.2816   -0.2861   -0.6830 C   0  0  0  0  0  0  0  0  0  0  0  0
   -0.9013   -0.1853   -0.7317 C   0  0  0  0  0  0  0  0  0  0  0  0
   -0.2163    0.7476   -0.2539 C   0  0  0  0  0  0  0  0  0  0  0  0
   -0.6345    1.8814    0.4230 C   0  0  0  0  0  0  0  0  0  0  0  0
   -2.0395    1.8843    0.5325 C   0  0  0  0  0  0  0  0  0  0  0  0
   -2.8156    0.8354   -0.0042 C   0  0  0  0  0  0  0  0  0  0  0  0
   -2.9171   -1.0718   -1.0808 H   0  0  0  0  0  0  0  0  0  0  0  0
   -0.0096    2.6745    0.8259 H   0  0  0  0  0  0  0  0  0  0  0  0
   -2.5496    2.7023    1.0368 H   0  0  0  0  0  0  0  0  0  0  0  0
   -4.2857    0.9065    0.1493 N   0  0  0  0  0  0  0  0  0  0  0  0
   -4.9500   -0.0105   -0.3264 O   0  0  0  0  0  0  0  0  0  0  0  0
   -4.7587    1.8783    0.7327 O   0  0  0  0  0  0  0  0  0  0  0  0
    2.6022    1.3503   -0.1279 N   0  0  0  0  0  0  0  0  0  0  0  0
    3.4766    0.7965   -0.5129 N   0  0  0  0  0  0  0  0  0  0  0  0
  1  6  1  0  0  0  0
  2  1  2  0  0  0  0
  2  3  1  0  0  0  0
  3  4  2  0  0  0  0
  4  5  1  0  0  0  0
  4  8  1  0  0  0  0
  5  9  1  0  0  0  0
  6 10  1  0  0  0  0
  6  5  2  0  0  0  0
  7  1  1  0  0  0  0
 10 12  2  0  0  0  0
 11 10  2  0  0  0  0
 14 13  3  0  0  0  0
M  RAD  2   2   2   3   2
M  END
