Coordinates from ORCA-job 4-NO2-C6H3-N2-B3LYPG-aug-cc-pVDZ-scan-d09-49-n400
 OpenBabel11091809093D

 14 13  0  0  0  0  0  0  0  0999 V2000
   -2.3075   -0.2940   -0.6864 C   0  0  0  0  0  0  0  0  0  0  0  0
   -0.9274   -0.2024   -0.7397 C   0  0  0  0  0  0  0  0  0  0  0  0
   -0.2283    0.7226   -0.2673 C   0  0  0  0  0  0  0  0  0  0  0  0
   -0.6369    1.8603    0.4108 C   0  0  0  0  0  0  0  0  0  0  0  0
   -2.0412    1.8751    0.5264 C   0  0  0  0  0  0  0  0  0  0  0  0
   -2.8288    0.8326   -0.0061 C   0  0  0  0  0  0  0  0  0  0  0  0
   -2.9509   -1.0748   -1.0811 H   0  0  0  0  0  0  0  0  0  0  0  0
   -0.0043    2.6488    0.8107 H   0  0  0  0  0  0  0  0  0  0  0  0
   -2.5421    2.6977    1.0323 H   0  0  0  0  0  0  0  0  0  0  0  0
   -4.2976    0.9160    0.1536 N   0  0  0  0  0  0  0  0  0  0  0  0
   -4.9711    0.0018   -0.3146 O   0  0  0  0  0  0  0  0  0  0  0  0
   -4.7597    1.8898    0.7424 O   0  0  0  0  0  0  0  0  0  0  0  0
    2.6751    1.3974   -0.1057 N   0  0  0  0  0  0  0  0  0  0  0  0
    3.5401    0.8327   -0.4959 N   0  0  0  0  0  0  0  0  0  0  0  0
  1  6  1  0  0  0  0
  2  1  2  0  0  0  0
  2  3  1  0  0  0  0
  3  4  2  0  0  0  0
  4  5  1  0  0  0  0
  4  8  1  0  0  0  0
  5  9  1  0  0  0  0
  6 10  1  0  0  0  0
  6  5  2  0  0  0  0
  7  1  1  0  0  0  0
 10 12  2  0  0  0  0
 11 10  2  0  0  0  0
 14 13  3  0  0  0  0
M  RAD  2   2   2   3   2
M  END
