Coordinates from ORCA-job 4-NO2-C6H3-N2-B3LYPG-aug-cc-pVDZ-scan-d09-49-n400
 OpenBabel11091809093D

 14 13  0  0  0  0  0  0  0  0999 V2000
   -2.7069   -0.4217   -0.7283 C   0  0  0  0  0  0  0  0  0  0  0  0
   -1.3420   -0.5511   -0.9059 C   0  0  0  0  0  0  0  0  0  0  0  0
   -0.4540    0.2437   -0.5221 C   0  0  0  0  0  0  0  0  0  0  0  0
   -0.6118    1.4381    0.1684 C   0  0  0  0  0  0  0  0  0  0  0  0
   -1.9791    1.6805    0.4103 C   0  0  0  0  0  0  0  0  0  0  0  0
   -2.9721    0.7786   -0.0263 C   0  0  0  0  0  0  0  0  0  0  0  0
   -3.5014   -1.0897   -1.0472 H   0  0  0  0  0  0  0  0  0  0  0  0
    0.1680    2.1210    0.4968 H   0  0  0  0  0  0  0  0  0  0  0  0
   -2.2909    2.5765    0.9431 H   0  0  0  0  0  0  0  0  0  0  0  0
   -4.3866    1.1016    0.2650 N   0  0  0  0  0  0  0  0  0  0  0  0
   -5.2398    0.3060   -0.1194 O   0  0  0  0  0  0  0  0  0  0  0  0
   -4.6277    2.1396    0.8754 O   0  0  0  0  0  0  0  0  0  0  0  0
    3.3198    2.0503    0.2148 N   0  0  0  0  0  0  0  0  0  0  0  0
    4.3439    1.7300   -0.0453 N   0  0  0  0  0  0  0  0  0  0  0  0
  1  6  1  0  0  0  0
  2  1  2  0  0  0  0
  2  3  1  0  0  0  0
  3  4  2  0  0  0  0
  4  5  1  0  0  0  0
  4  8  1  0  0  0  0
  5  9  1  0  0  0  0
  6 10  1  0  0  0  0
  6  5  2  0  0  0  0
  7  1  1  0  0  0  0
 10 12  2  0  0  0  0
 11 10  2  0  0  0  0
 14 13  3  0  0  0  0
M  RAD  2   2   2   3   2
M  END
