Coordinates from ORCA-job 4-NO2-C6H3-N2-B3LYPG-aug-cc-pVDZ-scan-d09-49-n400
 OpenBabel11091809093D

 14 13  0  0  0  0  0  0  0  0999 V2000
   -2.4200   -0.3310   -0.6986 C   0  0  0  0  0  0  0  0  0  0  0  0
   -1.0399   -0.2903   -0.7810 C   0  0  0  0  0  0  0  0  0  0  0  0
   -0.2896    0.6046   -0.3296 C   0  0  0  0  0  0  0  0  0  0  0  0
   -0.6412    1.7596    0.3538 C   0  0  0  0  0  0  0  0  0  0  0  0
   -2.0411    1.8292    0.5004 C   0  0  0  0  0  0  0  0  0  0  0  0
   -2.8808    0.8173   -0.0107 C   0  0  0  0  0  0  0  0  0  0  0  0
   -3.1017   -1.0871   -1.0764 H   0  0  0  0  0  0  0  0  0  0  0  0
    0.0281    2.5253    0.7379 H   0  0  0  0  0  0  0  0  0  0  0  0
   -2.4980    2.6722    1.0144 H   0  0  0  0  0  0  0  0  0  0  0  0
   -4.3413    0.9584    0.1810 N   0  0  0  0  0  0  0  0  0  0  0  0
   -5.0600    0.0700   -0.2692 O   0  0  0  0  0  0  0  0  0  0  0  0
   -4.7518    1.9509    0.7765 O   0  0  0  0  0  0  0  0  0  0  0  0
    2.9520    1.6012   -0.0113 N   0  0  0  0  0  0  0  0  0  0  0  0
    3.8049    1.0230   -0.4079 N   0  0  0  0  0  0  0  0  0  0  0  0
  1  6  1  0  0  0  0
  2  1  2  0  0  0  0
  2  3  1  0  0  0  0
  3  4  2  0  0  0  0
  4  5  1  0  0  0  0
  4  8  1  0  0  0  0
  5  9  1  0  0  0  0
  6 10  1  0  0  0  0
  6  5  2  0  0  0  0
  7  1  1  0  0  0  0
 10 12  2  0  0  0  0
 11 10  2  0  0  0  0
 14 13  3  0  0  0  0
M  RAD  2   2   2   3   2
M  END
