Coordinates from ORCA-job 4-NO2-C6H3-N2-B3LYPG-aug-cc-pVDZ-scan-d09-49-n400
 OpenBabel11091809093D

 14 13  0  0  0  0  0  0  0  0999 V2000
   -2.2791   -0.2848   -0.6833 C   0  0  0  0  0  0  0  0  0  0  0  0
   -0.8989   -0.1834   -0.7311 C   0  0  0  0  0  0  0  0  0  0  0  0
   -0.2148    0.7500   -0.2527 C   0  0  0  0  0  0  0  0  0  0  0  0
   -0.6344    1.8835    0.4238 C   0  0  0  0  0  0  0  0  0  0  0  0
   -2.0394    1.8856    0.5323 C   0  0  0  0  0  0  0  0  0  0  0  0
   -2.8144    0.8362   -0.0051 C   0  0  0  0  0  0  0  0  0  0  0  0
   -2.9139   -1.0709   -1.0817 H   0  0  0  0  0  0  0  0  0  0  0  0
   -0.0101    2.6769    0.8271 H   0  0  0  0  0  0  0  0  0  0  0  0
   -2.5503    2.7033    1.0362 H   0  0  0  0  0  0  0  0  0  0  0  0
   -4.2847    0.9065    0.1472 N   0  0  0  0  0  0  0  0  0  0  0  0
   -4.9478   -0.0132   -0.3250 O   0  0  0  0  0  0  0  0  0  0  0  0
   -4.7585    1.8758    0.7343 O   0  0  0  0  0  0  0  0  0  0  0  0
    2.5951    1.3451   -0.1294 N   0  0  0  0  0  0  0  0  0  0  0  0
    3.4707    0.7927   -0.5133 N   0  0  0  0  0  0  0  0  0  0  0  0
  1  6  1  0  0  0  0
  2  1  2  0  0  0  0
  2  3  1  0  0  0  0
  3  4  2  0  0  0  0
  4  5  1  0  0  0  0
  4  8  1  0  0  0  0
  5  9  1  0  0  0  0
  6 10  1  0  0  0  0
  6  5  2  0  0  0  0
  7  1  1  0  0  0  0
 10 12  2  0  0  0  0
 11 10  2  0  0  0  0
 14 13  3  0  0  0  0
M  RAD  2   2   2   3   2
M  END
