Coordinates from ORCA-job 4-NO2-C6H3-N2-B3LYPG-aug-cc-pVDZ-scan-d09-49-n400
 OpenBabel11091809093D

 14 13  0  0  0  0  0  0  0  0999 V2000
   -2.1793   -0.2540   -0.6729 C   0  0  0  0  0  0  0  0  0  0  0  0
   -0.7970   -0.1267   -0.7067 C   0  0  0  0  0  0  0  0  0  0  0  0
   -0.1702    0.8370   -0.2069 C   0  0  0  0  0  0  0  0  0  0  0  0
   -0.6205    1.9567    0.4644 C   0  0  0  0  0  0  0  0  0  0  0  0
   -2.0267    1.9185    0.5507 C   0  0  0  0  0  0  0  0  0  0  0  0
   -2.7602    0.8474   -0.0019 C   0  0  0  0  0  0  0  0  0  0  0  0
   -2.7866   -1.0563   -1.0825 H   0  0  0  0  0  0  0  0  0  0  0  0
   -0.0236    2.7657    0.8785 H   0  0  0  0  0  0  0  0  0  0  0  0
   -2.5693    2.7196    1.0480 H   0  0  0  0  0  0  0  0  0  0  0  0
   -4.2343    0.8753    0.1273 N   0  0  0  0  0  0  0  0  0  0  0  0
   -4.8637   -0.0599   -0.3601 O   0  0  0  0  0  0  0  0  0  0  0  0
   -4.7454    1.8309    0.7059 O   0  0  0  0  0  0  0  0  0  0  0  0
    2.3162    1.2083   -0.1870 N   0  0  0  0  0  0  0  0  0  0  0  0
    3.1801    0.6408   -0.5773 N   0  0  0  0  0  0  0  0  0  0  0  0
  1  6  1  0  0  0  0
  2  1  2  0  0  0  0
  2  3  1  0  0  0  0
  3  4  2  0  0  0  0
  4  5  1  0  0  0  0
  4  8  1  0  0  0  0
  5  9  1  0  0  0  0
  6 10  1  0  0  0  0
  6  5  2  0  0  0  0
  7  1  1  0  0  0  0
 10 12  2  0  0  0  0
 11 10  2  0  0  0  0
 14 13  3  0  0  0  0
M  RAD  2   2   2   3   2
M  END
