Coordinates from ORCA-job 4-NO2-C6H3-N2-B3LYPG-aug-cc-pVDZ-scan-d09-49-n400
 OpenBabel11091809093D

 14 14  0  0  0  0  0  0  0  0999 V2000
   -1.9895   -0.1897   -0.6432 C   0  0  0  0  0  0  0  0  0  0  0  0
   -0.5681   -0.2233   -0.7712 C   0  0  0  0  0  0  0  0  0  0  0  0
   -0.0275    0.8886   -0.1871 C   0  0  0  0  0  0  0  0  0  0  0  0
   -0.5773    1.9996    0.4797 C   0  0  0  0  0  0  0  0  0  0  0  0
   -1.9575    1.9702    0.5681 C   0  0  0  0  0  0  0  0  0  0  0  0
   -2.6314    0.8676   -0.0023 C   0  0  0  0  0  0  0  0  0  0  0  0
   -2.6036   -0.9949   -1.0465 H   0  0  0  0  0  0  0  0  0  0  0  0
    0.0173    2.8140    0.8935 H   0  0  0  0  0  0  0  0  0  0  0  0
   -2.5205    2.7599    1.0566 H   0  0  0  0  0  0  0  0  0  0  0  0
   -4.1178    0.8570    0.1043 N   0  0  0  0  0  0  0  0  0  0  0  0
   -4.7224   -0.0680   -0.4255 O   0  0  0  0  0  0  0  0  0  0  0  0
   -4.6508    1.7770    0.7214 O   0  0  0  0  0  0  0  0  0  0  0  0
    1.4897    0.8971   -0.3017 N   0  0  0  0  0  0  0  0  0  0  0  0
    2.5790    0.7484   -0.4666 N   0  0  0  0  0  0  0  0  0  0  0  0
  1  6  1  0  0  0  0
  2  1  2  0  0  0  0
  2  3  1  0  0  0  0
  3  4  2  0  0  0  0
  4  5  1  0  0  0  0
  4  8  1  0  0  0  0
  5  9  1  0  0  0  0
  6 10  1  0  0  0  0
  6  5  2  0  0  0  0
  7  1  1  0  0  0  0
 10 12  2  0  0  0  0
 11 10  2  0  0  0  0
 13  3  1  0  0  0  0
 14 13  1  0  0  0  0
M  RAD  3   2   2  13   2  14   3
M  END
