Coordinates from ORCA-job 4-NO2-C6H3-N2-B3LYPG-aug-cc-pVDZ-scan-d09-49-n400
 OpenBabel11091809093D

 14 13  0  0  0  0  0  0  0  0999 V2000
   -2.2918   -0.2894   -0.6841 C   0  0  0  0  0  0  0  0  0  0  0  0
   -0.9116   -0.1920   -0.7347 C   0  0  0  0  0  0  0  0  0  0  0  0
   -0.2211    0.7378   -0.2590 C   0  0  0  0  0  0  0  0  0  0  0  0
   -0.6354    1.8732    0.4183 C   0  0  0  0  0  0  0  0  0  0  0  0
   -2.0402    1.8805    0.5304 C   0  0  0  0  0  0  0  0  0  0  0  0
   -2.8208    0.8340   -0.0046 C   0  0  0  0  0  0  0  0  0  0  0  0
   -2.9304   -1.0732   -1.0807 H   0  0  0  0  0  0  0  0  0  0  0  0
   -0.0076    2.6645    0.8201 H   0  0  0  0  0  0  0  0  0  0  0  0
   -2.5467    2.7003    1.0354 H   0  0  0  0  0  0  0  0  0  0  0  0
   -4.2904    0.9099    0.1515 N   0  0  0  0  0  0  0  0  0  0  0  0
   -4.9584   -0.0052   -0.3227 O   0  0  0  0  0  0  0  0  0  0  0  0
   -4.7593    1.8832    0.7357 O   0  0  0  0  0  0  0  0  0  0  0  0
    2.6316    1.3694   -0.1193 N   0  0  0  0  0  0  0  0  0  0  0  0
    3.5015    0.8104   -0.5069 N   0  0  0  0  0  0  0  0  0  0  0  0
  1  6  1  0  0  0  0
  2  1  2  0  0  0  0
  2  3  1  0  0  0  0
  3  4  2  0  0  0  0
  4  5  1  0  0  0  0
  4  8  1  0  0  0  0
  5  9  1  0  0  0  0
  6 10  1  0  0  0  0
  6  5  2  0  0  0  0
  7  1  1  0  0  0  0
 10 12  2  0  0  0  0
 11 10  2  0  0  0  0
 14 13  3  0  0  0  0
M  RAD  2   2   2   3   2
M  END
