Coordinates from ORCA-job 4-NO2-C6H3-N2-B3LYPG-aug-cc-pVDZ-scan-d09-49-n400
 OpenBabel11091809093D

 14 13  0  0  0  0  0  0  0  0999 V2000
   -2.7568   -0.4360   -0.7324 C   0  0  0  0  0  0  0  0  0  0  0  0
   -1.3986   -0.6009   -0.9301 C   0  0  0  0  0  0  0  0  0  0  0  0
   -0.4841    0.1709   -0.5616 C   0  0  0  0  0  0  0  0  0  0  0  0
   -0.6011    1.3701    0.1289 C   0  0  0  0  0  0  0  0  0  0  0  0
   -1.9577    1.6484    0.3910 C   0  0  0  0  0  0  0  0  0  0  0  0
   -2.9802    0.7719   -0.0288 C   0  0  0  0  0  0  0  0  0  0  0  0
   -3.5730   -1.0838   -1.0380 H   0  0  0  0  0  0  0  0  0  0  0  0
    0.2013    2.0329    0.4441 H   0  0  0  0  0  0  0  0  0  0  0  0
   -2.2379    2.5531    0.9265 H   0  0  0  0  0  0  0  0  0  0  0  0
   -4.3813    1.1318    0.2831 N   0  0  0  0  0  0  0  0  0  0  0  0
   -5.2606    0.3592   -0.0889 O   0  0  0  0  0  0  0  0  0  0  0  0
   -4.5863    2.1780    0.8928 O   0  0  0  0  0  0  0  0  0  0  0  0
    3.3433    2.1332    0.2590 N   0  0  0  0  0  0  0  0  0  0  0  0
    4.3927    1.8745    0.0338 N   0  0  0  0  0  0  0  0  0  0  0  0
  1  6  1  0  0  0  0
  2  1  2  0  0  0  0
  2  3  1  0  0  0  0
  3  4  2  0  0  0  0
  4  5  1  0  0  0  0
  4  8  1  0  0  0  0
  5  9  1  0  0  0  0
  6 10  1  0  0  0  0
  6  5  2  0  0  0  0
  7  1  1  0  0  0  0
 10 12  2  0  0  0  0
 11 10  2  0  0  0  0
 14 13  3  0  0  0  0
M  RAD  2   2   2   3   2
M  END
