Coordinates from ORCA-job 4-NO2-C6H3-N2-B3LYPG-aug-cc-pVDZ-scan-d09-49-n400
 OpenBabel11091809093D

 14 13  0  0  0  0  0  0  0  0999 V2000
   -2.2893   -0.2881   -0.6844 C   0  0  0  0  0  0  0  0  0  0  0  0
   -0.9092   -0.1900   -0.7341 C   0  0  0  0  0  0  0  0  0  0  0  0
   -0.2195    0.7403   -0.2579 C   0  0  0  0  0  0  0  0  0  0  0  0
   -0.6354    1.8753    0.4192 C   0  0  0  0  0  0  0  0  0  0  0  0
   -2.0401    1.8819    0.5302 C   0  0  0  0  0  0  0  0  0  0  0  0
   -2.8196    0.8349   -0.0054 C   0  0  0  0  0  0  0  0  0  0  0  0
   -2.9272   -1.0723   -1.0815 H   0  0  0  0  0  0  0  0  0  0  0  0
   -0.0082    2.6670    0.8213 H   0  0  0  0  0  0  0  0  0  0  0  0
   -2.5475    2.7013    1.0349 H   0  0  0  0  0  0  0  0  0  0  0  0
   -4.2894    0.9098    0.1495 N   0  0  0  0  0  0  0  0  0  0  0  0
   -4.9562   -0.0079   -0.3213 O   0  0  0  0  0  0  0  0  0  0  0  0
   -4.7591    1.8807    0.7371 O   0  0  0  0  0  0  0  0  0  0  0  0
    2.6247    1.3642   -0.1208 N   0  0  0  0  0  0  0  0  0  0  0  0
    3.4956    0.8064   -0.5074 N   0  0  0  0  0  0  0  0  0  0  0  0
  1  6  1  0  0  0  0
  2  1  2  0  0  0  0
  2  3  1  0  0  0  0
  3  4  2  0  0  0  0
  4  5  1  0  0  0  0
  4  8  1  0  0  0  0
  5  9  1  0  0  0  0
  6 10  1  0  0  0  0
  6  5  2  0  0  0  0
  7  1  1  0  0  0  0
 10 12  2  0  0  0  0
 11 10  2  0  0  0  0
 14 13  3  0  0  0  0
M  RAD  2   2   2   3   2
M  END
