Coordinates from ORCA-job 4-NO2-C6H3-N2-B3LYPG-aug-cc-pVDZ-scan-d09-49-n400
 OpenBabel11091809093D

 14 14  0  0  0  0  0  0  0  0999 V2000
   -1.9688   -0.2455   -0.5423 C   0  0  0  0  0  0  0  0  0  0  0  0
   -0.5690   -0.3115   -0.7665 C   0  0  0  0  0  0  0  0  0  0  0  0
    0.1470    0.8689   -0.1990 C   0  0  0  0  0  0  0  0  0  0  0  0
   -0.5432    1.9528    0.4950 C   0  0  0  0  0  0  0  0  0  0  0  0
   -1.9076    1.9636    0.5465 C   0  0  0  0  0  0  0  0  0  0  0  0
   -2.6031    0.8661   -0.0122 C   0  0  0  0  0  0  0  0  0  0  0  0
   -2.5836   -1.0924   -0.8509 H   0  0  0  0  0  0  0  0  0  0  0  0
    0.0534    2.7396    0.9592 H   0  0  0  0  0  0  0  0  0  0  0  0
   -2.4570    2.7698    1.0249 H   0  0  0  0  0  0  0  0  0  0  0  0
   -4.0878    0.9033    0.0370 N   0  0  0  0  0  0  0  0  0  0  0  0
   -4.6980    0.1181   -0.6783 O   0  0  0  0  0  0  0  0  0  0  0  0
   -4.6044    1.7018    0.8160 O   0  0  0  0  0  0  0  0  0  0  0  0
    1.2066    0.9191   -0.3421 N   0  0  0  0  0  0  0  0  0  0  0  0
    2.3351    0.9498   -0.5080 N   0  0  0  0  0  0  0  0  0  0  0  0
  1  6  1  0  0  0  0
  2  1  2  0  0  0  0
  2  3  1  0  0  0  0
  3  4  2  0  0  0  0
  4  5  1  0  0  0  0
  4  8  1  0  0  0  0
  5  9  1  0  0  0  0
  6 10  1  0  0  0  0
  6  5  2  0  0  0  0
  7  1  1  0  0  0  0
 10 12  2  0  0  0  0
 11 10  2  0  0  0  0
 13  3  1  0  0  0  0
 14 13  1  0  0  0  0
M  RAD  3   2   2  13   2  14   3
M  END
