Coordinates from ORCA-job 4-NO2-C6H3-N2-B3LYPG-aug-cc-pVDZ-scan-d09-49-n400
 OpenBabel11091809093D

 14 14  0  0  0  0  0  0  0  0999 V2000
   -1.9748   -0.2403   -0.5581 C   0  0  0  0  0  0  0  0  0  0  0  0
   -0.5664   -0.3063   -0.7590 C   0  0  0  0  0  0  0  0  0  0  0  0
    0.1064    0.8612   -0.1909 C   0  0  0  0  0  0  0  0  0  0  0  0
   -0.5490    1.9628    0.4869 C   0  0  0  0  0  0  0  0  0  0  0  0
   -1.9160    1.9664    0.5464 C   0  0  0  0  0  0  0  0  0  0  0  0
   -2.6071    0.8645   -0.0114 C   0  0  0  0  0  0  0  0  0  0  0  0
   -2.5932   -1.0798   -0.8789 H   0  0  0  0  0  0  0  0  0  0  0  0
    0.0436    2.7610    0.9360 H   0  0  0  0  0  0  0  0  0  0  0  0
   -2.4696    2.7714    1.0216 H   0  0  0  0  0  0  0  0  0  0  0  0
   -4.0929    0.8951    0.0518 N   0  0  0  0  0  0  0  0  0  0  0  0
   -4.7077    0.1177   -0.6682 O   0  0  0  0  0  0  0  0  0  0  0  0
   -4.6069    1.6902    0.8362 O   0  0  0  0  0  0  0  0  0  0  0  0
    1.2667    0.9074   -0.3393 N   0  0  0  0  0  0  0  0  0  0  0  0
    2.3866    0.9321   -0.4938 N   0  0  0  0  0  0  0  0  0  0  0  0
  1  6  1  0  0  0  0
  2  1  2  0  0  0  0
  2  3  1  0  0  0  0
  3  4  2  0  0  0  0
  4  5  1  0  0  0  0
  4  8  1  0  0  0  0
  5  9  1  0  0  0  0
  6 10  1  0  0  0  0
  6  5  2  0  0  0  0
  7  1  1  0  0  0  0
 10 12  2  0  0  0  0
 11 10  2  0  0  0  0
 13  3  1  0  0  0  0
 14 13  1  0  0  0  0
M  RAD  3   2   2  13   2  14   3
M  END
