Coordinates from ORCA-job 4-NO2-C6H3-N2-B3LYPG-aug-cc-pVDZ-scan-d09-49-n400
 OpenBabel11091809093D

 14 13  0  0  0  0  0  0  0  0999 V2000
   -2.5845   -0.3842   -0.7165 C   0  0  0  0  0  0  0  0  0  0  0  0
   -1.2089   -0.4361   -0.8505 C   0  0  0  0  0  0  0  0  0  0  0  0
   -0.3852    0.4092   -0.4329 C   0  0  0  0  0  0  0  0  0  0  0  0
   -0.6311    1.5885    0.2558 C   0  0  0  0  0  0  0  0  0  0  0  0
   -2.0174    1.7506    0.4533 C   0  0  0  0  0  0  0  0  0  0  0  0
   -2.9414    0.7951   -0.0194 C   0  0  0  0  0  0  0  0  0  0  0  0
   -3.3288   -1.0946   -1.0636 H   0  0  0  0  0  0  0  0  0  0  0  0
    0.0989    2.3116    0.6112 H   0  0  0  0  0  0  0  0  0  0  0  0
   -2.3979    2.6242    0.9785 H   0  0  0  0  0  0  0  0  0  0  0  0
   -4.3811    1.0346    0.2260 N   0  0  0  0  0  0  0  0  0  0  0  0
   -5.1738    0.1931   -0.1887 O   0  0  0  0  0  0  0  0  0  0  0  0
   -4.7015    2.0536    0.8320 O   0  0  0  0  0  0  0  0  0  0  0  0
    3.2067    1.8486    0.1105 N   0  0  0  0  0  0  0  0  0  0  0  0
    4.1654    1.4092   -0.2163 N   0  0  0  0  0  0  0  0  0  0  0  0
  1  6  1  0  0  0  0
  2  1  2  0  0  0  0
  2  3  1  0  0  0  0
  3  4  2  0  0  0  0
  4  5  1  0  0  0  0
  4  8  1  0  0  0  0
  5  9  1  0  0  0  0
  6 10  1  0  0  0  0
  6  5  2  0  0  0  0
  7  1  1  0  0  0  0
 10 12  2  0  0  0  0
 11 10  2  0  0  0  0
 14 13  3  0  0  0  0
M  RAD  2   2   2   3   2
M  END
