Coordinates from ORCA-job 4-NO2-C6H3-N2-B3LYPG-aug-cc-pVDZ-scan-d09-49-n400
 OpenBabel11091809093D

 14 14  0  0  0  0  0  0  0  0999 V2000
   -2.0200   -0.1981   -0.6540 C   0  0  0  0  0  0  0  0  0  0  0  0
   -0.6173   -0.1173   -0.7155 C   0  0  0  0  0  0  0  0  0  0  0  0
   -0.0849    0.9170   -0.1681 C   0  0  0  0  0  0  0  0  0  0  0  0
   -0.5894    2.0184    0.4969 C   0  0  0  0  0  0  0  0  0  0  0  0
   -1.9854    1.9614    0.5714 C   0  0  0  0  0  0  0  0  0  0  0  0
   -2.6639    0.8659    0.0004 C   0  0  0  0  0  0  0  0  0  0  0  0
   -2.6077   -1.0130   -1.0724 H   0  0  0  0  0  0  0  0  0  0  0  0
   -0.0007    2.8338    0.9155 H   0  0  0  0  0  0  0  0  0  0  0  0
   -2.5549    2.7467    1.0616 H   0  0  0  0  0  0  0  0  0  0  0  0
   -4.1432    0.8454    0.1020 N   0  0  0  0  0  0  0  0  0  0  0  0
   -4.7349   -0.1079   -0.3953 O   0  0  0  0  0  0  0  0  0  0  0  0
   -4.6932    1.7827    0.6765 O   0  0  0  0  0  0  0  0  0  0  0  0
    1.7424    1.0309   -0.2434 N   0  0  0  0  0  0  0  0  0  0  0  0
    2.6726    0.5375   -0.5962 N   0  0  0  0  0  0  0  0  0  0  0  0
  1  6  1  0  0  0  0
  2  1  2  0  0  0  0
  2  3  1  0  0  0  0
  3  4  2  0  0  0  0
  4  5  1  0  0  0  0
  4  8  1  0  0  0  0
  5  9  1  0  0  0  0
  6 10  1  0  0  0  0
  6  5  2  0  0  0  0
  7  1  1  0  0  0  0
 10 12  2  0  0  0  0
 11 10  2  0  0  0  0
 13  3  1  0  0  0  0
 14 13  2  0  0  0  0
M  RAD  2   2   2  14   2
M  END
