Coordinates from ORCA-job 4-NO2-C6H3-N2-B3LYPG-aug-cc-pVDZ-scan-d09-49-n400
 OpenBabel11091809093D

 14 13  0  0  0  0  0  0  0  0999 V2000
   -2.4458   -0.3396   -0.7014 C   0  0  0  0  0  0  0  0  0  0  0  0
   -1.0658   -0.3132   -0.7919 C   0  0  0  0  0  0  0  0  0  0  0  0
   -0.3052    0.5752   -0.3451 C   0  0  0  0  0  0  0  0  0  0  0  0
   -0.6401    1.7342    0.3394 C   0  0  0  0  0  0  0  0  0  0  0  0
   -2.0387    1.8176    0.4936 C   0  0  0  0  0  0  0  0  0  0  0  0
   -2.8912    0.8138   -0.0119 C   0  0  0  0  0  0  0  0  0  0  0  0
   -3.1373   -1.0891   -1.0748 H   0  0  0  0  0  0  0  0  0  0  0  0
    0.0369    2.4949    0.7200 H   0  0  0  0  0  0  0  0  0  0  0  0
   -2.4843    2.6655    1.0096 H   0  0  0  0  0  0  0  0  0  0  0  0
   -4.3491    0.9696    0.1879 N   0  0  0  0  0  0  0  0  0  0  0  0
   -5.0791    0.0881   -0.2575 O   0  0  0  0  0  0  0  0  0  0  0  0
   -4.7462    1.9667    0.7849 O   0  0  0  0  0  0  0  0  0  0  0  0
    2.9967    1.6380    0.0062 N   0  0  0  0  0  0  0  0  0  0  0  0
    3.8688    1.0816   -0.3797 N   0  0  0  0  0  0  0  0  0  0  0  0
  1  6  1  0  0  0  0
  2  1  2  0  0  0  0
  2  3  1  0  0  0  0
  3  4  2  0  0  0  0
  4  5  1  0  0  0  0
  4  8  1  0  0  0  0
  5  9  1  0  0  0  0
  6 10  1  0  0  0  0
  6  5  2  0  0  0  0
  7  1  1  0  0  0  0
 10 12  2  0  0  0  0
 11 10  2  0  0  0  0
 14 13  3  0  0  0  0
M  RAD  2   2   2   3   2
M  END
