Coordinates from ORCA-job 4-NO2-C6H3-N2-B3LYPG-aug-cc-pVDZ-scan-d09-49-n400
 OpenBabel11091809093D

 14 13  0  0  0  0  0  0  0  0999 V2000
   -2.2099   -0.2627   -0.6763 C   0  0  0  0  0  0  0  0  0  0  0  0
   -0.8284   -0.1415   -0.7130 C   0  0  0  0  0  0  0  0  0  0  0  0
   -0.1826    0.8122   -0.2201 C   0  0  0  0  0  0  0  0  0  0  0  0
   -0.6264    1.9361    0.4529 C   0  0  0  0  0  0  0  0  0  0  0  0
   -2.0323    1.9096    0.5453 C   0  0  0  0  0  0  0  0  0  0  0  0
   -2.7778    0.8448   -0.0032 C   0  0  0  0  0  0  0  0  0  0  0  0
   -2.8250   -1.0604   -1.0828 H   0  0  0  0  0  0  0  0  0  0  0  0
   -0.0218    2.7406    0.8642 H   0  0  0  0  0  0  0  0  0  0  0  0
   -2.5659    2.7157    1.0445 H   0  0  0  0  0  0  0  0  0  0  0  0
   -4.2509    0.8847    0.1321 N   0  0  0  0  0  0  0  0  0  0  0  0
   -4.8896   -0.0478   -0.3486 O   0  0  0  0  0  0  0  0  0  0  0  0
   -4.7515    1.8428    0.7155 O   0  0  0  0  0  0  0  0  0  0  0  0
    2.4055    1.2442   -0.1725 N   0  0  0  0  0  0  0  0  0  0  0  0
    3.2762    0.6851   -0.5587 N   0  0  0  0  0  0  0  0  0  0  0  0
  1  6  1  0  0  0  0
  2  1  2  0  0  0  0
  2  3  1  0  0  0  0
  3  4  2  0  0  0  0
  4  5  1  0  0  0  0
  4  8  1  0  0  0  0
  5  9  1  0  0  0  0
  6 10  1  0  0  0  0
  6  5  2  0  0  0  0
  7  1  1  0  0  0  0
 10 12  2  0  0  0  0
 11 10  2  0  0  0  0
 14 13  3  0  0  0  0
M  RAD  2   2   2   3   2
M  END
