Coordinates from ORCA-job 4-NO2-C6H3-N2-B3LYPG-aug-cc-pVDZ-scan-d09-49-n400
 OpenBabel11091809093D

 14 13  0  0  0  0  0  0  0  0999 V2000
   -2.5677   -0.3786   -0.7143 C   0  0  0  0  0  0  0  0  0  0  0  0
   -1.1912   -0.4206   -0.8430 C   0  0  0  0  0  0  0  0  0  0  0  0
   -0.3747    0.4301   -0.4217 C   0  0  0  0  0  0  0  0  0  0  0  0
   -0.6335    1.6065    0.2666 C   0  0  0  0  0  0  0  0  0  0  0  0
   -2.0214    1.7594    0.4592 C   0  0  0  0  0  0  0  0  0  0  0  0
   -2.9364    0.7975   -0.0178 C   0  0  0  0  0  0  0  0  0  0  0  0
   -3.3053   -1.0943   -1.0648 H   0  0  0  0  0  0  0  0  0  0  0  0
    0.0909    2.3337    0.6246 H   0  0  0  0  0  0  0  0  0  0  0  0
   -2.4100    2.6299    0.9835 H   0  0  0  0  0  0  0  0  0  0  0  0
   -4.3787    1.0258    0.2218 N   0  0  0  0  0  0  0  0  0  0  0  0
   -5.1635    0.1799   -0.1988 O   0  0  0  0  0  0  0  0  0  0  0  0
   -4.7094    2.0431    0.8252 O   0  0  0  0  0  0  0  0  0  0  0  0
    3.1853    1.8219    0.0967 N   0  0  0  0  0  0  0  0  0  0  0  0
    4.1351    1.3691   -0.2377 N   0  0  0  0  0  0  0  0  0  0  0  0
  1  6  1  0  0  0  0
  2  1  2  0  0  0  0
  2  3  1  0  0  0  0
  3  4  2  0  0  0  0
  4  5  1  0  0  0  0
  4  8  1  0  0  0  0
  5  9  1  0  0  0  0
  6 10  1  0  0  0  0
  6  5  2  0  0  0  0
  7  1  1  0  0  0  0
 10 12  2  0  0  0  0
 11 10  2  0  0  0  0
 14 13  3  0  0  0  0
M  RAD  2   2   2   3   2
M  END
