Coordinates from ORCA-job 4-NO2-C6H3-N2-B3LYPG-aug-cc-pVDZ-scan-d09-49-n400
 OpenBabel11091809093D

 14 14  0  0  0  0  0  0  0  0999 V2000
   -1.9846   -0.2117   -0.6131 C   0  0  0  0  0  0  0  0  0  0  0  0
   -0.5639   -0.2743   -0.7644 C   0  0  0  0  0  0  0  0  0  0  0  0
    0.0314    0.8708   -0.1903 C   0  0  0  0  0  0  0  0  0  0  0  0
   -0.5645    1.9889    0.4677 C   0  0  0  0  0  0  0  0  0  0  0  0
   -1.9371    1.9721    0.5509 C   0  0  0  0  0  0  0  0  0  0  0  0
   -2.6179    0.8648   -0.0085 C   0  0  0  0  0  0  0  0  0  0  0  0
   -2.6057   -1.0275   -0.9841 H   0  0  0  0  0  0  0  0  0  0  0  0
    0.0263    2.8060    0.8829 H   0  0  0  0  0  0  0  0  0  0  0  0
   -2.4971    2.7700    1.0297 H   0  0  0  0  0  0  0  0  0  0  0  0
   -4.1060    0.8708    0.0917 N   0  0  0  0  0  0  0  0  0  0  0  0
   -4.7247    0.0369   -0.5579 O   0  0  0  0  0  0  0  0  0  0  0  0
   -4.6199    1.7096    0.8289 O   0  0  0  0  0  0  0  0  0  0  0  0
    1.3867    0.8802   -0.3159 N   0  0  0  0  0  0  0  0  0  0  0  0
    2.4968    0.8468   -0.4382 N   0  0  0  0  0  0  0  0  0  0  0  0
  1  6  1  0  0  0  0
  2  1  2  0  0  0  0
  2  3  1  0  0  0  0
  3  4  2  0  0  0  0
  4  5  1  0  0  0  0
  4  8  1  0  0  0  0
  5  9  1  0  0  0  0
  6 10  1  0  0  0  0
  6  5  2  0  0  0  0
  7  1  1  0  0  0  0
 10 12  2  0  0  0  0
 11 10  2  0  0  0  0
 13  3  1  0  0  0  0
 14 13  1  0  0  0  0
M  RAD  3   2   2  13   2  14   3
M  END
