Coordinates from ORCA-job 4-NO2-C6H3-N2-B3LYPG-aug-cc-pVDZ-scan-d09-49-n400
 OpenBabel11091809093D

 14 13  0  0  0  0  0  0  0  0999 V2000
   -2.7108   -0.4226   -0.7283 C   0  0  0  0  0  0  0  0  0  0  0  0
   -1.3464   -0.5549   -0.9078 C   0  0  0  0  0  0  0  0  0  0  0  0
   -0.4560    0.2380   -0.5253 C   0  0  0  0  0  0  0  0  0  0  0  0
   -0.6119    1.4321    0.1651 C   0  0  0  0  0  0  0  0  0  0  0  0
   -1.9778    1.6783    0.4095 C   0  0  0  0  0  0  0  0  0  0  0  0
   -2.9729    0.7783   -0.0259 C   0  0  0  0  0  0  0  0  0  0  0  0
   -3.5069   -1.0891   -1.0462 H   0  0  0  0  0  0  0  0  0  0  0  0
    0.1714    2.1120    0.4916 H   0  0  0  0  0  0  0  0  0  0  0  0
   -2.2867    2.5750    0.9426 H   0  0  0  0  0  0  0  0  0  0  0  0
   -4.3865    1.1036    0.2670 N   0  0  0  0  0  0  0  0  0  0  0  0
   -5.2416    0.3105   -0.1180 O   0  0  0  0  0  0  0  0  0  0  0  0
   -4.6251    2.1430    0.8761 O   0  0  0  0  0  0  0  0  0  0  0  0
    3.3220    2.0570    0.2179 N   0  0  0  0  0  0  0  0  0  0  0  0
    4.3487    1.7423   -0.0389 N   0  0  0  0  0  0  0  0  0  0  0  0
  1  6  1  0  0  0  0
  2  1  2  0  0  0  0
  2  3  1  0  0  0  0
  3  4  2  0  0  0  0
  4  5  1  0  0  0  0
  4  8  1  0  0  0  0
  5  9  1  0  0  0  0
  6 10  1  0  0  0  0
  6  5  2  0  0  0  0
  7  1  1  0  0  0  0
 10 12  2  0  0  0  0
 11 10  2  0  0  0  0
 14 13  3  0  0  0  0
M  RAD  2   2   2   3   2
M  END
