Coordinates from ORCA-job 4-NO2-C6H3-N2-B3LYPG-aug-cc-pVDZ-scan-d09-49-n400
 OpenBabel11091809093D

 14 13  0  0  0  0  0  0  0  0999 V2000
   -2.5111   -0.3609   -0.7083 C   0  0  0  0  0  0  0  0  0  0  0  0
   -1.1324   -0.3700   -0.8188 C   0  0  0  0  0  0  0  0  0  0  0  0
   -0.3427    0.4993   -0.3849 C   0  0  0  0  0  0  0  0  0  0  0  0
   -0.6373    1.6681    0.3020 C   0  0  0  0  0  0  0  0  0  0  0  0
   -2.0310    1.7872    0.4761 C   0  0  0  0  0  0  0  0  0  0  0  0
   -2.9166    0.8048   -0.0148 C   0  0  0  0  0  0  0  0  0  0  0  0
   -3.2269   -1.0931   -1.0699 H   0  0  0  0  0  0  0  0  0  0  0  0
    0.0647    2.4117    0.6711 H   0  0  0  0  0  0  0  0  0  0  0  0
   -2.4473    2.6471    0.9966 H   0  0  0  0  0  0  0  0  0  0  0  0
   -4.3670    0.9986    0.2061 N   0  0  0  0  0  0  0  0  0  0  0  0
   -5.1261    0.1360   -0.2278 O   0  0  0  0  0  0  0  0  0  0  0  0
   -4.7297    2.0073    0.8054 O   0  0  0  0  0  0  0  0  0  0  0  0
    3.1036    1.7341    0.0531 N   0  0  0  0  0  0  0  0  0  0  0  0
    4.0193    1.2331   -0.3067 N   0  0  0  0  0  0  0  0  0  0  0  0
  1  6  1  0  0  0  0
  2  1  2  0  0  0  0
  2  3  1  0  0  0  0
  3  4  2  0  0  0  0
  4  5  1  0  0  0  0
  4  8  1  0  0  0  0
  5  9  1  0  0  0  0
  6 10  1  0  0  0  0
  6  5  2  0  0  0  0
  7  1  1  0  0  0  0
 10 12  2  0  0  0  0
 11 10  2  0  0  0  0
 14 13  3  0  0  0  0
M  RAD  2   2   2   3   2
M  END
