Coordinates from ORCA-job 4-NO2-C6H3-N2-B3LYPG-aug-cc-pVDZ-scan-d09-49-n400
 OpenBabel11091809093D

 14 13  0  0  0  0  0  0  0  0999 V2000
   -2.8286   -0.4544   -0.7380 C   0  0  0  0  0  0  0  0  0  0  0  0
   -1.4820   -0.6714   -0.9635 C   0  0  0  0  0  0  0  0  0  0  0  0
   -0.5315    0.0663   -0.6170 C   0  0  0  0  0  0  0  0  0  0  0  0
   -0.5882    1.2714    0.0712 C   0  0  0  0  0  0  0  0  0  0  0  0
   -1.9274    1.6016    0.3603 C   0  0  0  0  0  0  0  0  0  0  0  0
   -2.9911    0.7633   -0.0347 C   0  0  0  0  0  0  0  0  0  0  0  0
   -3.6750   -1.0716   -1.0239 H   0  0  0  0  0  0  0  0  0  0  0  0
    0.2446    1.9049    0.3674 H   0  0  0  0  0  0  0  0  0  0  0  0
   -2.1619    2.5179    0.8980 H   0  0  0  0  0  0  0  0  0  0  0  0
   -4.3707    1.1774    0.3049 N   0  0  0  0  0  0  0  0  0  0  0  0
   -5.2859    0.4341   -0.0394 O   0  0  0  0  0  0  0  0  0  0  0  0
   -4.5224    2.2291    0.9207 O   0  0  0  0  0  0  0  0  0  0  0  0
    3.3812    2.2511    0.3244 N   0  0  0  0  0  0  0  0  0  0  0  0
    4.4584    2.0838    0.1491 N   0  0  0  0  0  0  0  0  0  0  0  0
  1  6  1  0  0  0  0
  2  1  2  0  0  0  0
  2  3  1  0  0  0  0
  3  4  2  0  0  0  0
  4  5  1  0  0  0  0
  4  8  1  0  0  0  0
  5  9  1  0  0  0  0
  6 10  1  0  0  0  0
  6  5  2  0  0  0  0
  7  1  1  0  0  0  0
 10 12  2  0  0  0  0
 11 10  2  0  0  0  0
 14 13  3  0  0  0  0
M  RAD  2   2   2   3   2
M  END
