Coordinates from ORCA-job 4-NO2-C6H3-N2-B3LYPG-aug-cc-pVDZ-scan-d09-49-n400
 OpenBabel11091809093D

 14 13  0  0  0  0  0  0  0  0999 V2000
   -2.7603   -0.4369   -0.7329 C   0  0  0  0  0  0  0  0  0  0  0  0
   -1.4025   -0.6042   -0.9317 C   0  0  0  0  0  0  0  0  0  0  0  0
   -0.4864    0.1660   -0.5641 C   0  0  0  0  0  0  0  0  0  0  0  0
   -0.6004    1.3658    0.1261 C   0  0  0  0  0  0  0  0  0  0  0  0
   -1.9564    1.6464    0.3890 C   0  0  0  0  0  0  0  0  0  0  0  0
   -2.9809    0.7717   -0.0296 C   0  0  0  0  0  0  0  0  0  0  0  0
   -3.5779   -1.0833   -1.0376 H   0  0  0  0  0  0  0  0  0  0  0  0
    0.2030    2.0276    0.4406 H   0  0  0  0  0  0  0  0  0  0  0  0
   -2.2346    2.5518    0.9245 H   0  0  0  0  0  0  0  0  0  0  0  0
   -4.3811    1.1344    0.2833 N   0  0  0  0  0  0  0  0  0  0  0  0
   -5.2620    0.3619   -0.0852 O   0  0  0  0  0  0  0  0  0  0  0  0
   -4.5834    2.1798    0.8952 O   0  0  0  0  0  0  0  0  0  0  0  0
    3.3458    2.1387    0.2624 N   0  0  0  0  0  0  0  0  0  0  0  0
    4.3966    1.8837    0.0394 N   0  0  0  0  0  0  0  0  0  0  0  0
  1  6  1  0  0  0  0
  2  1  2  0  0  0  0
  2  3  1  0  0  0  0
  3  4  2  0  0  0  0
  4  5  1  0  0  0  0
  4  8  1  0  0  0  0
  5  9  1  0  0  0  0
  6 10  1  0  0  0  0
  6  5  2  0  0  0  0
  7  1  1  0  0  0  0
 10 12  2  0  0  0  0
 11 10  2  0  0  0  0
 14 13  3  0  0  0  0
M  RAD  2   2   2   3   2
M  END
