Coordinates from ORCA-job 4-NO2-C6H3-N2-B3LYPG-aug-cc-pVDZ-scan-d09-49-n400
 OpenBabel11091809093D

 14 13  0  0  0  0  0  0  0  0999 V2000
   -2.1766   -0.2527   -0.6732 C   0  0  0  0  0  0  0  0  0  0  0  0
   -0.7943   -0.1248   -0.7062 C   0  0  0  0  0  0  0  0  0  0  0  0
   -0.1684    0.8394   -0.2058 C   0  0  0  0  0  0  0  0  0  0  0  0
   -0.6203    1.9587    0.4652 C   0  0  0  0  0  0  0  0  0  0  0  0
   -2.0264    1.9198    0.5506 C   0  0  0  0  0  0  0  0  0  0  0  0
   -2.7588    0.8482   -0.0027 C   0  0  0  0  0  0  0  0  0  0  0  0
   -2.7832   -1.0554   -1.0832 H   0  0  0  0  0  0  0  0  0  0  0  0
   -0.0238    2.7678    0.8797 H   0  0  0  0  0  0  0  0  0  0  0  0
   -2.5698    2.7206    1.0475 H   0  0  0  0  0  0  0  0  0  0  0  0
   -4.2330    0.8752    0.1254 N   0  0  0  0  0  0  0  0  0  0  0  0
   -4.8612   -0.0624   -0.3591 O   0  0  0  0  0  0  0  0  0  0  0  0
   -4.7449    1.8285    0.7070 O   0  0  0  0  0  0  0  0  0  0  0  0
    2.3087    1.2046   -0.1877 N   0  0  0  0  0  0  0  0  0  0  0  0
    3.1716    0.6359   -0.5783 N   0  0  0  0  0  0  0  0  0  0  0  0
  1  6  1  0  0  0  0
  2  1  2  0  0  0  0
  2  3  1  0  0  0  0
  3  4  2  0  0  0  0
  4  5  1  0  0  0  0
  4  8  1  0  0  0  0
  5  9  1  0  0  0  0
  6 10  1  0  0  0  0
  6  5  2  0  0  0  0
  7  1  1  0  0  0  0
 10 12  2  0  0  0  0
 11 10  2  0  0  0  0
 14 13  3  0  0  0  0
M  RAD  2   2   2   3   2
M  END
