Coordinates from ORCA-job 4-NO2-C6H3-N2-B3LYPG-aug-cc-pVDZ-scan-d09-49-n400
 OpenBabel11091809093D

 14 14  0  0  0  0  0  0  0  0999 V2000
   -1.9812   -0.2264   -0.5863 C   0  0  0  0  0  0  0  0  0  0  0  0
   -0.5649   -0.2931   -0.7589 C   0  0  0  0  0  0  0  0  0  0  0  0
    0.0628    0.8637   -0.1900 C   0  0  0  0  0  0  0  0  0  0  0  0
   -0.5579    1.9778    0.4732 C   0  0  0  0  0  0  0  0  0  0  0  0
   -1.9277    1.9709    0.5463 C   0  0  0  0  0  0  0  0  0  0  0  0
   -2.6133    0.8647   -0.0107 C   0  0  0  0  0  0  0  0  0  0  0  0
   -2.6019   -1.0541   -0.9313 H   0  0  0  0  0  0  0  0  0  0  0  0
    0.0334    2.7878    0.9020 H   0  0  0  0  0  0  0  0  0  0  0  0
   -2.4848    2.7730    1.0219 H   0  0  0  0  0  0  0  0  0  0  0  0
   -4.1004    0.8827    0.0734 N   0  0  0  0  0  0  0  0  0  0  0  0
   -4.7194    0.0889   -0.6245 O   0  0  0  0  0  0  0  0  0  0  0  0
   -4.6118    1.6860    0.8510 O   0  0  0  0  0  0  0  0  0  0  0  0
    1.3361    0.8907   -0.3275 N   0  0  0  0  0  0  0  0  0  0  0  0
    2.4503    0.8908   -0.4593 N   0  0  0  0  0  0  0  0  0  0  0  0
  1  6  1  0  0  0  0
  2  1  2  0  0  0  0
  2  3  1  0  0  0  0
  3  4  2  0  0  0  0
  4  5  1  0  0  0  0
  4  8  1  0  0  0  0
  5  9  1  0  0  0  0
  6 10  1  0  0  0  0
  6  5  2  0  0  0  0
  7  1  1  0  0  0  0
 10 12  2  0  0  0  0
 11 10  2  0  0  0  0
 13  3  1  0  0  0  0
 14 13  1  0  0  0  0
M  RAD  3   2   2  13   2  14   3
M  END
