Coordinates from ORCA-job 4-NO2-C6H3-N2-B3LYPG-aug-cc-pVDZ-scan-d09-49-n400
 OpenBabel11091809093D

 14 13  0  0  0  0  0  0  0  0999 V2000
   -2.5308   -0.3672   -0.7104 C   0  0  0  0  0  0  0  0  0  0  0  0
   -1.1528   -0.3875   -0.8270 C   0  0  0  0  0  0  0  0  0  0  0  0
   -0.3540    0.4756   -0.3974 C   0  0  0  0  0  0  0  0  0  0  0  0
   -0.6362    1.6472    0.2901 C   0  0  0  0  0  0  0  0  0  0  0  0
   -2.0281    1.7777    0.4704 C   0  0  0  0  0  0  0  0  0  0  0  0
   -2.9237    0.8021   -0.0157 C   0  0  0  0  0  0  0  0  0  0  0  0
   -3.2541   -1.0938   -1.0682 H   0  0  0  0  0  0  0  0  0  0  0  0
    0.0734    2.3854    0.6556 H   0  0  0  0  0  0  0  0  0  0  0  0
   -2.4350    2.6412    0.9923 H   0  0  0  0  0  0  0  0  0  0  0  0
   -4.3715    1.0077    0.2116 N   0  0  0  0  0  0  0  0  0  0  0  0
   -5.1395    0.1511   -0.2182 O   0  0  0  0  0  0  0  0  0  0  0  0
   -4.7234    2.0198    0.8119 O   0  0  0  0  0  0  0  0  0  0  0  0
    3.1337    1.7642    0.0679 N   0  0  0  0  0  0  0  0  0  0  0  0
    4.0616    1.2799   -0.2835 N   0  0  0  0  0  0  0  0  0  0  0  0
  1  6  1  0  0  0  0
  2  1  2  0  0  0  0
  2  3  1  0  0  0  0
  3  4  2  0  0  0  0
  4  5  1  0  0  0  0
  4  8  1  0  0  0  0
  5  9  1  0  0  0  0
  6 10  1  0  0  0  0
  6  5  2  0  0  0  0
  7  1  1  0  0  0  0
 10 12  2  0  0  0  0
 11 10  2  0  0  0  0
 14 13  3  0  0  0  0
M  RAD  2   2   2   3   2
M  END
