Coordinates from ORCA-job 4-NO2-C6H3-N2-B3LYPG-aug-cc-pVDZ-scan-d09-49-n400
 OpenBabel11091809093D

 14 13  0  0  0  0  0  0  0  0999 V2000
   -2.9009   -0.4708   -0.7410 C   0  0  0  0  0  0  0  0  0  0  0  0
   -1.5729   -0.7516   -1.0025 C   0  0  0  0  0  0  0  0  0  0  0  0
   -0.5787   -0.0597   -0.6854 C   0  0  0  0  0  0  0  0  0  0  0  0
   -0.5607    1.1480   -0.0003 C   0  0  0  0  0  0  0  0  0  0  0  0
   -1.8738    1.5429    0.3248 C   0  0  0  0  0  0  0  0  0  0  0  0
   -2.9863    0.7549   -0.0377 C   0  0  0  0  0  0  0  0  0  0  0  0
   -3.7831   -1.0479   -1.0014 H   0  0  0  0  0  0  0  0  0  0  0  0
    0.3092    1.7420    0.2706 H   0  0  0  0  0  0  0  0  0  0  0  0
   -2.0492    2.4705    0.8656 H   0  0  0  0  0  0  0  0  0  0  0  0
   -4.3350    1.2342    0.3382 N   0  0  0  0  0  0  0  0  0  0  0  0
   -5.2939    0.5384    0.0145 O   0  0  0  0  0  0  0  0  0  0  0  0
   -4.4204    2.2971    0.9473 O   0  0  0  0  0  0  0  0  0  0  0  0
    3.3332    2.3693    0.3944 N   0  0  0  0  0  0  0  0  0  0  0  0
    4.4321    2.3361    0.2923 N   0  0  0  0  0  0  0  0  0  0  0  0
  1  6  1  0  0  0  0
  2  1  2  0  0  0  0
  2  3  1  0  0  0  0
  3  4  2  0  0  0  0
  4  8  1  0  0  0  0
  4  5  1  0  0  0  0
  5  9  1  0  0  0  0
  6  5  2  0  0  0  0
  6 10  1  0  0  0  0
  7  1  1  0  0  0  0
 10 12  2  0  0  0  0
 11 10  2  0  0  0  0
 14 13  3  0  0  0  0
M  RAD  2   2   2   3   2
M  END
