Coordinates from ORCA-job 4-NO2-C6H3-N2-B3LYPG-aug-cc-pVDZ-scan-d09-49-n400
 OpenBabel11091809093D

 14 13  0  0  0  0  0  0  0  0999 V2000
   -2.2071   -0.2622   -0.6766 C   0  0  0  0  0  0  0  0  0  0  0  0
   -0.8256   -0.1408   -0.7129 C   0  0  0  0  0  0  0  0  0  0  0  0
   -0.1830    0.8146   -0.2188 C   0  0  0  0  0  0  0  0  0  0  0  0
   -0.6248    1.9381    0.4538 C   0  0  0  0  0  0  0  0  0  0  0  0
   -2.0312    1.9102    0.5452 C   0  0  0  0  0  0  0  0  0  0  0  0
   -2.7758    0.8450   -0.0037 C   0  0  0  0  0  0  0  0  0  0  0  0
   -2.8216   -1.0602   -1.0834 H   0  0  0  0  0  0  0  0  0  0  0  0
   -0.0218    2.7435    0.8658 H   0  0  0  0  0  0  0  0  0  0  0  0
   -2.5657    2.7159    1.0441 H   0  0  0  0  0  0  0  0  0  0  0  0
   -4.2491    0.8844    0.1311 N   0  0  0  0  0  0  0  0  0  0  0  0
   -4.8871   -0.0491   -0.3484 O   0  0  0  0  0  0  0  0  0  0  0  0
   -4.7501    1.8415    0.7159 O   0  0  0  0  0  0  0  0  0  0  0  0
    2.3959    1.2409   -0.1733 N   0  0  0  0  0  0  0  0  0  0  0  0
    3.2665    0.6816   -0.5593 N   0  0  0  0  0  0  0  0  0  0  0  0
  1  6  1  0  0  0  0
  2  1  2  0  0  0  0
  2  3  1  0  0  0  0
  3  4  2  0  0  0  0
  4  5  1  0  0  0  0
  4  8  1  0  0  0  0
  5  9  1  0  0  0  0
  6 10  1  0  0  0  0
  6  5  2  0  0  0  0
  7  1  1  0  0  0  0
 10 12  2  0  0  0  0
 11 10  2  0  0  0  0
 14 13  3  0  0  0  0
M  RAD  2   2   2   3   2
M  END
