Coordinates from ORCA-job 4-NO2-C6H3-N2-B3LYPG-aug-cc-pVDZ-scan-d09-49-n400
 OpenBabel11091809093D

 14 13  0  0  0  0  0  0  0  0999 V2000
   -2.5609   -0.3768   -0.7137 C   0  0  0  0  0  0  0  0  0  0  0  0
   -1.1841   -0.4145   -0.8401 C   0  0  0  0  0  0  0  0  0  0  0  0
   -0.3714    0.4388   -0.4170 C   0  0  0  0  0  0  0  0  0  0  0  0
   -0.6336    1.6147    0.2713 C   0  0  0  0  0  0  0  0  0  0  0  0
   -2.0225    1.7626    0.4612 C   0  0  0  0  0  0  0  0  0  0  0  0
   -2.9339    0.7981   -0.0175 C   0  0  0  0  0  0  0  0  0  0  0  0
   -3.2958   -1.0945   -1.0656 H   0  0  0  0  0  0  0  0  0  0  0  0
    0.0874    2.3446    0.6312 H   0  0  0  0  0  0  0  0  0  0  0  0
   -2.4149    2.6318    0.9850 H   0  0  0  0  0  0  0  0  0  0  0  0
   -4.3773    1.0224    0.2199 N   0  0  0  0  0  0  0  0  0  0  0  0
   -5.1591    0.1745   -0.2025 O   0  0  0  0  0  0  0  0  0  0  0  0
   -4.7119    2.0388    0.8226 O   0  0  0  0  0  0  0  0  0  0  0  0
    3.1760    1.8110    0.0913 N   0  0  0  0  0  0  0  0  0  0  0  0
    4.1215    1.3519   -0.2466 N   0  0  0  0  0  0  0  0  0  0  0  0
  1  6  1  0  0  0  0
  2  1  2  0  0  0  0
  2  3  1  0  0  0  0
  3  4  2  0  0  0  0
  4  5  1  0  0  0  0
  4  8  1  0  0  0  0
  5  9  1  0  0  0  0
  6 10  1  0  0  0  0
  6  5  2  0  0  0  0
  7  1  1  0  0  0  0
 10 12  2  0  0  0  0
 11 10  2  0  0  0  0
 14 13  3  0  0  0  0
M  RAD  2   2   2   3   2
M  END
