Coordinates from ORCA-job 4-NO2-C6H3-N2-B3LYPG-aug-cc-pVDZ-scan-d09-49-n400
 OpenBabel11091809093D

 14 13  0  0  0  0  0  0  0  0999 V2000
   -2.6680   -0.4098   -0.7245 C   0  0  0  0  0  0  0  0  0  0  0  0
   -1.2988   -0.5138   -0.8878 C   0  0  0  0  0  0  0  0  0  0  0  0
   -0.4325    0.2991   -0.4920 C   0  0  0  0  0  0  0  0  0  0  0  0
   -0.6204    1.4887    0.1982 C   0  0  0  0  0  0  0  0  0  0  0  0
   -1.9946    1.7045    0.4253 C   0  0  0  0  0  0  0  0  0  0  0  0
   -2.9645    0.7839   -0.0239 C   0  0  0  0  0  0  0  0  0  0  0  0
   -3.4459   -1.0924   -1.0531 H   0  0  0  0  0  0  0  0  0  0  0  0
    0.1442    2.1845    0.5352 H   0  0  0  0  0  0  0  0  0  0  0  0
   -2.3297    2.5934    0.9558 H   0  0  0  0  0  0  0  0  0  0  0  0
   -4.3883    1.0786    0.2519 N   0  0  0  0  0  0  0  0  0  0  0  0
   -5.2213    0.2671   -0.1432 O   0  0  0  0  0  0  0  0  0  0  0  0
   -4.6565    2.1108    0.8609 O   0  0  0  0  0  0  0  0  0  0  0  0
    3.2966    1.9864    0.1810 N   0  0  0  0  0  0  0  0  0  0  0  0
    4.2992    1.6224   -0.1043 N   0  0  0  0  0  0  0  0  0  0  0  0
  1  6  1  0  0  0  0
  2  1  2  0  0  0  0
  2  3  1  0  0  0  0
  3  4  2  0  0  0  0
  4  5  1  0  0  0  0
  4  8  1  0  0  0  0
  5  9  1  0  0  0  0
  6 10  1  0  0  0  0
  6  5  2  0  0  0  0
  7  1  1  0  0  0  0
 10 12  2  0  0  0  0
 11 10  2  0  0  0  0
 14 13  3  0  0  0  0
M  RAD  2   2   2   3   2
M  END
