Coordinates from ORCA-job 4-NO2-C6H3-N2-B3LYPG-aug-cc-pVDZ-scan-d09-49-n400
 OpenBabel11091809093D

 14 13  0  0  0  0  0  0  0  0999 V2000
   -2.9170   -0.4737   -0.7416 C   0  0  0  0  0  0  0  0  0  0  0  0
   -1.5941   -0.7703   -1.0114 C   0  0  0  0  0  0  0  0  0  0  0  0
   -0.5898   -0.0896   -0.7015 C   0  0  0  0  0  0  0  0  0  0  0  0
   -0.5535    1.1184   -0.0179 C   0  0  0  0  0  0  0  0  0  0  0  0
   -1.8597    1.5289    0.3154 C   0  0  0  0  0  0  0  0  0  0  0  0
   -2.9836    0.7536   -0.0391 C   0  0  0  0  0  0  0  0  0  0  0  0
   -3.8075   -1.0409   -0.9956 H   0  0  0  0  0  0  0  0  0  0  0  0
    0.3255    1.7018    0.2464 H   0  0  0  0  0  0  0  0  0  0  0  0
   -2.0207    2.4591    0.8563 H   0  0  0  0  0  0  0  0  0  0  0  0
   -4.3242    1.2489    0.3450 N   0  0  0  0  0  0  0  0  0  0  0  0
   -5.2931    0.5632    0.0297 O   0  0  0  0  0  0  0  0  0  0  0  0
   -4.3932    2.3127    0.9548 O   0  0  0  0  0  0  0  0  0  0  0  0
    3.3148    2.3947    0.4104 N   0  0  0  0  0  0  0  0  0  0  0  0
    4.4158    2.3966    0.3284 N   0  0  0  0  0  0  0  0  0  0  0  0
  1  6  1  0  0  0  0
  2  1  2  0  0  0  0
  2  3  1  0  0  0  0
  3  4  2  0  0  0  0
  4  8  1  0  0  0  0
  4  5  1  0  0  0  0
  5  9  1  0  0  0  0
  6  5  2  0  0  0  0
  6 10  1  0  0  0  0
  7  1  1  0  0  0  0
 10 12  2  0  0  0  0
 11 10  2  0  0  0  0
 14 13  3  0  0  0  0
M  RAD  2   2   2   3   2
M  END
