Coordinates from ORCA-job 4-NO2-C6H3-N2-B3LYPG-aug-cc-pVDZ-scan-d09-49-n400
 OpenBabel11091809093D

 14 13  0  0  0  0  0  0  0  0999 V2000
   -2.1163   -0.2330   -0.6666 C   0  0  0  0  0  0  0  0  0  0  0  0
   -0.7311   -0.0981   -0.6959 C   0  0  0  0  0  0  0  0  0  0  0  0
   -0.1392    0.8845   -0.1825 C   0  0  0  0  0  0  0  0  0  0  0  0
   -0.6113    1.9956    0.4855 C   0  0  0  0  0  0  0  0  0  0  0  0
   -2.0159    1.9379    0.5602 C   0  0  0  0  0  0  0  0  0  0  0  0
   -2.7247    0.8550   -0.0013 C   0  0  0  0  0  0  0  0  0  0  0  0
   -2.7085   -1.0438   -1.0823 H   0  0  0  0  0  0  0  0  0  0  0  0
   -0.0250    2.8106    0.9041 H   0  0  0  0  0  0  0  0  0  0  0  0
   -2.5751    2.7300    1.0534 H   0  0  0  0  0  0  0  0  0  0  0  0
   -4.2005    0.8588    0.1138 N   0  0  0  0  0  0  0  0  0  0  0  0
   -4.8100   -0.0874   -0.3775 O   0  0  0  0  0  0  0  0  0  0  0  0
   -4.7322    1.8036    0.6918 O   0  0  0  0  0  0  0  0  0  0  0  0
    2.1300    1.1375   -0.2124 N   0  0  0  0  0  0  0  0  0  0  0  0
    2.9794    0.5523   -0.6109 N   0  0  0  0  0  0  0  0  0  0  0  0
  1  6  1  0  0  0  0
  2  1  2  0  0  0  0
  2  3  1  0  0  0  0
  3  4  2  0  0  0  0
  4  5  1  0  0  0  0
  4  8  1  0  0  0  0
  5  9  1  0  0  0  0
  6 10  1  0  0  0  0
  6  5  2  0  0  0  0
  7  1  1  0  0  0  0
 10 12  2  0  0  0  0
 11 10  2  0  0  0  0
 14 13  3  0  0  0  0
M  RAD  2   2   2   3   2
M  END
