Coordinates from ORCA-job 4-NO2-C6H3-N2-B3LYPG-aug-cc-pVDZ-scan-d09-49-n400
 OpenBabel11091809093D

 14 14  0  0  0  0  0  0  0  0999 V2000
   -1.9655   -0.2425   -0.5461 C   0  0  0  0  0  0  0  0  0  0  0  0
   -0.5686   -0.3165   -0.7753 C   0  0  0  0  0  0  0  0  0  0  0  0
    0.1739    0.8751   -0.1999 C   0  0  0  0  0  0  0  0  0  0  0  0
   -0.5417    1.9519    0.4935 C   0  0  0  0  0  0  0  0  0  0  0  0
   -1.9044    1.9620    0.5465 C   0  0  0  0  0  0  0  0  0  0  0  0
   -2.6007    0.8653   -0.0108 C   0  0  0  0  0  0  0  0  0  0  0  0
   -2.5801   -1.0872   -0.8619 H   0  0  0  0  0  0  0  0  0  0  0  0
    0.0569    2.7391    0.9549 H   0  0  0  0  0  0  0  0  0  0  0  0
   -2.4521    2.7688    1.0261 H   0  0  0  0  0  0  0  0  0  0  0  0
   -4.0860    0.9001    0.0417 N   0  0  0  0  0  0  0  0  0  0  0  0
   -4.6961    0.1063   -0.6637 O   0  0  0  0  0  0  0  0  0  0  0  0
   -4.6016    1.7129    0.8060 O   0  0  0  0  0  0  0  0  0  0  0  0
    1.1743    0.9205   -0.3330 N   0  0  0  0  0  0  0  0  0  0  0  0
    2.3113    0.9475   -0.4985 N   0  0  0  0  0  0  0  0  0  0  0  0
  1  6  1  0  0  0  0
  2  1  2  0  0  0  0
  2  3  1  0  0  0  0
  3  4  2  0  0  0  0
  4  5  1  0  0  0  0
  4  8  1  0  0  0  0
  5  9  1  0  0  0  0
  6 10  1  0  0  0  0
  6  5  2  0  0  0  0
  7  1  1  0  0  0  0
 10 12  2  0  0  0  0
 11 10  2  0  0  0  0
 13  3  1  0  0  0  0
 14 13  1  0  0  0  0
M  RAD  3   2   2  13   2  14   3
M  END
