Coordinates from ORCA-job 4-NO2-C6H3-N2-B3LYPG-aug-cc-pVDZ-scan-d09-49-n400
 OpenBabel11091809093D

 14 14  0  0  0  0  0  0  0  0999 V2000
   -1.9987   -0.1880   -0.6494 C   0  0  0  0  0  0  0  0  0  0  0  0
   -0.5875   -0.1469   -0.7347 C   0  0  0  0  0  0  0  0  0  0  0  0
   -0.0675    0.9145   -0.1710 C   0  0  0  0  0  0  0  0  0  0  0  0
   -0.5866    2.0160    0.4953 C   0  0  0  0  0  0  0  0  0  0  0  0
   -1.9775    1.9676    0.5748 C   0  0  0  0  0  0  0  0  0  0  0  0
   -2.6489    0.8687    0.0017 C   0  0  0  0  0  0  0  0  0  0  0  0
   -2.5929   -1.0004   -1.0656 H   0  0  0  0  0  0  0  0  0  0  0  0
    0.0051    2.8303    0.9129 H   0  0  0  0  0  0  0  0  0  0  0  0
   -2.5466    2.7525    1.0650 H   0  0  0  0  0  0  0  0  0  0  0  0
   -4.1304    0.8455    0.1026 N   0  0  0  0  0  0  0  0  0  0  0  0
   -4.7214   -0.1063   -0.3972 O   0  0  0  0  0  0  0  0  0  0  0  0
   -4.6809    1.7840    0.6748 O   0  0  0  0  0  0  0  0  0  0  0  0
    1.6306    0.9827   -0.2631 N   0  0  0  0  0  0  0  0  0  0  0  0
    2.6225    0.5831   -0.5666 N   0  0  0  0  0  0  0  0  0  0  0  0
  1  6  1  0  0  0  0
  2  1  2  0  0  0  0
  2  3  1  0  0  0  0
  3  4  2  0  0  0  0
  4  5  1  0  0  0  0
  4  8  1  0  0  0  0
  5  9  1  0  0  0  0
  6 10  1  0  0  0  0
  6  5  2  0  0  0  0
  7  1  1  0  0  0  0
 10 12  2  0  0  0  0
 11 10  2  0  0  0  0
 13  3  1  0  0  0  0
 14 13  2  0  0  0  0
M  RAD  2   2   2  14   2
M  END
