Coordinates from ORCA-job 4-NO2-C6H3-N2-B3LYPG-aug-cc-pVDZ-scan-d09-49-n400
 OpenBabel11091809093D

 14 13  0  0  0  0  0  0  0  0999 V2000
   -2.1602   -0.2471   -0.6713 C   0  0  0  0  0  0  0  0  0  0  0  0
   -0.7773   -0.1163   -0.7027 C   0  0  0  0  0  0  0  0  0  0  0  0
   -0.1593    0.8521   -0.1993 C   0  0  0  0  0  0  0  0  0  0  0  0
   -0.6187    1.9693    0.4711 C   0  0  0  0  0  0  0  0  0  0  0  0
   -2.0242    1.9252    0.5535 C   0  0  0  0  0  0  0  0  0  0  0  0
   -2.7499    0.8503   -0.0022 C   0  0  0  0  0  0  0  0  0  0  0  0
   -2.7626   -1.0522   -1.0830 H   0  0  0  0  0  0  0  0  0  0  0  0
   -0.0245    2.7797    0.8865 H   0  0  0  0  0  0  0  0  0  0  0  0
   -2.5721    2.7235    1.0494 H   0  0  0  0  0  0  0  0  0  0  0  0
   -4.2245    0.8704    0.1221 N   0  0  0  0  0  0  0  0  0  0  0  0
   -4.8472   -0.0698   -0.3644 O   0  0  0  0  0  0  0  0  0  0  0  0
   -4.7423    1.8212    0.7027 O   0  0  0  0  0  0  0  0  0  0  0  0
    2.2617    1.1854   -0.1951 N   0  0  0  0  0  0  0  0  0  0  0  0
    3.1205    0.6117   -0.5880 N   0  0  0  0  0  0  0  0  0  0  0  0
  1  6  1  0  0  0  0
  2  1  2  0  0  0  0
  2  3  1  0  0  0  0
  3  4  2  0  0  0  0
  4  5  1  0  0  0  0
  4  8  1  0  0  0  0
  5  9  1  0  0  0  0
  6 10  1  0  0  0  0
  6  5  2  0  0  0  0
  7  1  1  0  0  0  0
 10 12  2  0  0  0  0
 11 10  2  0  0  0  0
 14 13  3  0  0  0  0
M  RAD  2   2   2   3   2
M  END
