Coordinates from ORCA-job 4-NO2-C6H3-N2-B3LYPG-aug-cc-pVDZ-scan-d09-49-n400
 OpenBabel11091809093D

 14 13  0  0  0  0  0  0  0  0999 V2000
   -2.5881   -0.3851   -0.7164 C   0  0  0  0  0  0  0  0  0  0  0  0
   -1.2127   -0.4393   -0.8520 C   0  0  0  0  0  0  0  0  0  0  0  0
   -0.3864    0.4043   -0.4355 C   0  0  0  0  0  0  0  0  0  0  0  0
   -0.6313    1.5836    0.2533 C   0  0  0  0  0  0  0  0  0  0  0  0
   -2.0168    1.7487    0.4527 C   0  0  0  0  0  0  0  0  0  0  0  0
   -2.9427    0.7946   -0.0189 C   0  0  0  0  0  0  0  0  0  0  0  0
   -3.3337   -1.0945   -1.0627 H   0  0  0  0  0  0  0  0  0  0  0  0
    0.1011    2.3047    0.6073 H   0  0  0  0  0  0  0  0  0  0  0  0
   -2.3951    2.6230    0.9784 H   0  0  0  0  0  0  0  0  0  0  0  0
   -4.3817    1.0360    0.2279 N   0  0  0  0  0  0  0  0  0  0  0  0
   -5.1762    0.1968   -0.1882 O   0  0  0  0  0  0  0  0  0  0  0  0
   -4.7003    2.0566    0.8321 O   0  0  0  0  0  0  0  0  0  0  0  0
    3.2112    1.8547    0.1132 N   0  0  0  0  0  0  0  0  0  0  0  0
    4.1723    1.4192   -0.2118 N   0  0  0  0  0  0  0  0  0  0  0  0
  1  6  1  0  0  0  0
  2  1  2  0  0  0  0
  2  3  1  0  0  0  0
  3  4  2  0  0  0  0
  4  5  1  0  0  0  0
  4  8  1  0  0  0  0
  5  9  1  0  0  0  0
  6 10  1  0  0  0  0
  6  5  2  0  0  0  0
  7  1  1  0  0  0  0
 10 12  2  0  0  0  0
 11 10  2  0  0  0  0
 14 13  3  0  0  0  0
M  RAD  2   2   2   3   2
M  END
