Coordinates from ORCA-job 4-NO2-C6H3-N2-B3LYPG-aug-cc-pVDZ-scan-d09-49-n400
 OpenBabel11091809093D

 14 13  0  0  0  0  0  0  0  0999 V2000
   -2.4785   -0.3503   -0.7051 C   0  0  0  0  0  0  0  0  0  0  0  0
   -1.0990   -0.3417   -0.8054 C   0  0  0  0  0  0  0  0  0  0  0  0
   -0.3239    0.5373   -0.3650 C   0  0  0  0  0  0  0  0  0  0  0  0
   -0.6387    1.7013    0.3206 C   0  0  0  0  0  0  0  0  0  0  0  0
   -2.0350    1.8027    0.4847 C   0  0  0  0  0  0  0  0  0  0  0  0
   -2.9042    0.8094   -0.0136 C   0  0  0  0  0  0  0  0  0  0  0  0
   -3.1822   -1.0913   -1.0725 H   0  0  0  0  0  0  0  0  0  0  0  0
    0.0503    2.4539    0.6958 H   0  0  0  0  0  0  0  0  0  0  0  0
   -2.4660    2.6568    1.0030 H   0  0  0  0  0  0  0  0  0  0  0  0
   -4.3586    0.9842    0.1967 N   0  0  0  0  0  0  0  0  0  0  0  0
   -5.1031    0.1115   -0.2420 O   0  0  0  0  0  0  0  0  0  0  0  0
   -4.7386    1.9867    0.7958 O   0  0  0  0  0  0  0  0  0  0  0  0
    3.0511    1.6856    0.0296 N   0  0  0  0  0  0  0  0  0  0  0  0
    3.9459    1.1572   -0.3432 N   0  0  0  0  0  0  0  0  0  0  0  0
  1  6  1  0  0  0  0
  2  1  2  0  0  0  0
  2  3  1  0  0  0  0
  3  4  2  0  0  0  0
  4  5  1  0  0  0  0
  4  8  1  0  0  0  0
  5  9  1  0  0  0  0
  6 10  1  0  0  0  0
  6  5  2  0  0  0  0
  7  1  1  0  0  0  0
 10 12  2  0  0  0  0
 11 10  2  0  0  0  0
 14 13  3  0  0  0  0
M  RAD  2   2   2   3   2
M  END
