Coordinates from ORCA-job 4-NO2-C6H3-N2-B3LYPG-aug-cc-pVDZ-scan-d09-49-n400
 OpenBabel11091809093D

 14 13  0  0  0  0  0  0  0  0999 V2000
   -2.7034   -0.4207   -0.7277 C   0  0  0  0  0  0  0  0  0  0  0  0
   -1.3381   -0.5477   -0.9043 C   0  0  0  0  0  0  0  0  0  0  0  0
   -0.4517    0.2485   -0.5195 C   0  0  0  0  0  0  0  0  0  0  0  0
   -0.6125    1.4424    0.1712 C   0  0  0  0  0  0  0  0  0  0  0  0
   -1.9803    1.6825    0.4122 C   0  0  0  0  0  0  0  0  0  0  0  0
   -2.9713    0.7789   -0.0255 C   0  0  0  0  0  0  0  0  0  0  0  0
   -3.4964   -1.0901   -1.0475 H   0  0  0  0  0  0  0  0  0  0  0  0
    0.1663    2.1261    0.5002 H   0  0  0  0  0  0  0  0  0  0  0  0
   -2.2941    2.5777    0.9449 H   0  0  0  0  0  0  0  0  0  0  0  0
   -4.3867    1.0991    0.2646 N   0  0  0  0  0  0  0  0  0  0  0  0
   -5.2382    0.3033   -0.1228 O   0  0  0  0  0  0  0  0  0  0  0  0
   -4.6303    2.1377    0.8731 O   0  0  0  0  0  0  0  0  0  0  0  0
    3.3169    2.0447    0.2114 N   0  0  0  0  0  0  0  0  0  0  0  0
    4.3394    1.7209   -0.0508 N   0  0  0  0  0  0  0  0  0  0  0  0
  1  6  1  0  0  0  0
  2  1  2  0  0  0  0
  2  3  1  0  0  0  0
  3  4  2  0  0  0  0
  4  5  1  0  0  0  0
  4  8  1  0  0  0  0
  5  9  1  0  0  0  0
  6 10  1  0  0  0  0
  6  5  2  0  0  0  0
  7  1  1  0  0  0  0
 10 12  2  0  0  0  0
 11 10  2  0  0  0  0
 14 13  3  0  0  0  0
M  RAD  2   2   2   3   2
M  END
