Coordinates from ORCA-job 4-NO2-C6H3-N2-B3LYPG-aug-cc-pVDZ-scan-d09-49-n400
 OpenBabel11091809093D

 14 14  0  0  0  0  0  0  0  0999 V2000
   -1.9937   -0.1863   -0.6492 C   0  0  0  0  0  0  0  0  0  0  0  0
   -0.5801   -0.1576   -0.7416 C   0  0  0  0  0  0  0  0  0  0  0  0
   -0.0613    0.9124   -0.1729 C   0  0  0  0  0  0  0  0  0  0  0  0
   -0.5847    2.0149    0.4943 C   0  0  0  0  0  0  0  0  0  0  0  0
   -1.9741    1.9690    0.5749 C   0  0  0  0  0  0  0  0  0  0  0  0
   -2.6442    0.8694    0.0010 C   0  0  0  0  0  0  0  0  0  0  0  0
   -2.5908   -0.9971   -1.0646 H   0  0  0  0  0  0  0  0  0  0  0  0
    0.0074    2.8289    0.9118 H   0  0  0  0  0  0  0  0  0  0  0  0
   -2.5431    2.7540    1.0649 H   0  0  0  0  0  0  0  0  0  0  0  0
   -4.1265    0.8468    0.1019 N   0  0  0  0  0  0  0  0  0  0  0  0
   -4.7180   -0.1057   -0.3956 O   0  0  0  0  0  0  0  0  0  0  0  0
   -4.6759    1.7845    0.6765 O   0  0  0  0  0  0  0  0  0  0  0  0
    1.5969    0.9679   -0.2685 N   0  0  0  0  0  0  0  0  0  0  0  0
    2.6077    0.6024   -0.5535 N   0  0  0  0  0  0  0  0  0  0  0  0
  1  6  1  0  0  0  0
  2  1  2  0  0  0  0
  2  3  1  0  0  0  0
  3  4  2  0  0  0  0
  4  5  1  0  0  0  0
  4  8  1  0  0  0  0
  5  9  1  0  0  0  0
  6 10  1  0  0  0  0
  6  5  2  0  0  0  0
  7  1  1  0  0  0  0
 10 12  2  0  0  0  0
 11 10  2  0  0  0  0
 13  3  1  0  0  0  0
 14 13  1  0  0  0  0
M  RAD  3   2   2  13   2  14   3
M  END
