Coordinates from ORCA-job 4-NO2-C6H3-N2-B3LYPG-aug-cc-pVDZ-scan-d09-49-n400
 OpenBabel11091809093D

 14 13  0  0  0  0  0  0  0  0999 V2000
   -2.1278   -0.2371   -0.6682 C   0  0  0  0  0  0  0  0  0  0  0  0
   -0.7429   -0.1043   -0.6986 C   0  0  0  0  0  0  0  0  0  0  0  0
   -0.1456    0.8752   -0.1873 C   0  0  0  0  0  0  0  0  0  0  0  0
   -0.6120    1.9883    0.4814 C   0  0  0  0  0  0  0  0  0  0  0  0
   -2.0172    1.9343    0.5582 C   0  0  0  0  0  0  0  0  0  0  0  0
   -2.7308    0.8537   -0.0017 C   0  0  0  0  0  0  0  0  0  0  0  0
   -2.7232   -1.0462   -1.0827 H   0  0  0  0  0  0  0  0  0  0  0  0
   -0.0243    2.8024    0.8994 H   0  0  0  0  0  0  0  0  0  0  0  0
   -2.5733    2.7281    1.0521 H   0  0  0  0  0  0  0  0  0  0  0  0
   -4.2063    0.8623    0.1160 N   0  0  0  0  0  0  0  0  0  0  0  0
   -4.8196   -0.0823   -0.3736 O   0  0  0  0  0  0  0  0  0  0  0  0
   -4.7340    1.8086    0.6951 O   0  0  0  0  0  0  0  0  0  0  0  0
    2.1615    1.1506   -0.2073 N   0  0  0  0  0  0  0  0  0  0  0  0
    3.0149    0.5700   -0.6034 N   0  0  0  0  0  0  0  0  0  0  0  0
  1  6  1  0  0  0  0
  2  1  2  0  0  0  0
  2  3  1  0  0  0  0
  3  4  2  0  0  0  0
  4  5  1  0  0  0  0
  4  8  1  0  0  0  0
  5  9  1  0  0  0  0
  6 10  1  0  0  0  0
  6  5  2  0  0  0  0
  7  1  1  0  0  0  0
 10 12  2  0  0  0  0
 11 10  2  0  0  0  0
 14 13  3  0  0  0  0
M  RAD  2   2   2   3   2
M  END
