Coordinates from ORCA-job 4-NO2-C6H3-N2-B3LYPG-aug-cc-pVDZ-scan-d09-49-n400
 OpenBabel11091809093D

 14 13  0  0  0  0  0  0  0  0999 V2000
   -2.8251   -0.4538   -0.7372 C   0  0  0  0  0  0  0  0  0  0  0  0
   -1.4780   -0.6680   -0.9622 C   0  0  0  0  0  0  0  0  0  0  0  0
   -0.5291    0.0713   -0.6147 C   0  0  0  0  0  0  0  0  0  0  0  0
   -0.5888    1.2756    0.0744 C   0  0  0  0  0  0  0  0  0  0  0  0
   -1.9288    1.6032    0.3632 C   0  0  0  0  0  0  0  0  0  0  0  0
   -2.9905    0.7630   -0.0329 C   0  0  0  0  0  0  0  0  0  0  0  0
   -3.6701   -1.0725   -1.0241 H   0  0  0  0  0  0  0  0  0  0  0  0
    0.2430    1.9101    0.3712 H   0  0  0  0  0  0  0  0  0  0  0  0
   -2.1653    2.5186    0.9016 H   0  0  0  0  0  0  0  0  0  0  0  0
   -4.3711    1.1738    0.3064 N   0  0  0  0  0  0  0  0  0  0  0  0
   -5.2851    0.4327   -0.0456 O   0  0  0  0  0  0  0  0  0  0  0  0
   -4.5258    2.2284    0.9165 O   0  0  0  0  0  0  0  0  0  0  0  0
    3.3791    2.2458    0.3205 N   0  0  0  0  0  0  0  0  0  0  0  0
    4.4553    2.0749    0.1424 N   0  0  0  0  0  0  0  0  0  0  0  0
  1  6  1  0  0  0  0
  2  1  2  0  0  0  0
  2  3  1  0  0  0  0
  3  4  2  0  0  0  0
  4  5  1  0  0  0  0
  4  8  1  0  0  0  0
  5  9  1  0  0  0  0
  6 10  1  0  0  0  0
  6  5  2  0  0  0  0
  7  1  1  0  0  0  0
 10 12  2  0  0  0  0
 11 10  2  0  0  0  0
 14 13  3  0  0  0  0
M  RAD  2   2   2   3   2
M  END
