Coordinates from ORCA-job 4-NO2-C6H3-N2-B3LYPG-aug-cc-pVDZ-scan-d09-49-n400
 OpenBabel11091809093D

 14 13  0  0  0  0  0  0  0  0999 V2000
   -2.5241   -0.3650   -0.7102 C   0  0  0  0  0  0  0  0  0  0  0  0
   -1.1458   -0.3817   -0.8244 C   0  0  0  0  0  0  0  0  0  0  0  0
   -0.3506    0.4839   -0.3931 C   0  0  0  0  0  0  0  0  0  0  0  0
   -0.6362    1.6548    0.2940 C   0  0  0  0  0  0  0  0  0  0  0  0
   -2.0290    1.7812    0.4716 C   0  0  0  0  0  0  0  0  0  0  0  0
   -2.9213    0.8033   -0.0162 C   0  0  0  0  0  0  0  0  0  0  0  0
   -3.2449   -1.0934   -1.0693 H   0  0  0  0  0  0  0  0  0  0  0  0
    0.0701    2.3952    0.6610 H   0  0  0  0  0  0  0  0  0  0  0  0
   -2.4394    2.6436    0.9928 H   0  0  0  0  0  0  0  0  0  0  0  0
   -4.3700    1.0053    0.2085 N   0  0  0  0  0  0  0  0  0  0  0  0
   -5.1348    0.1448   -0.2194 O   0  0  0  0  0  0  0  0  0  0  0  0
   -4.7252    2.0145    0.8115 O   0  0  0  0  0  0  0  0  0  0  0  0
    3.1236    1.7536    0.0634 N   0  0  0  0  0  0  0  0  0  0  0  0
    4.0472    1.2632   -0.2908 N   0  0  0  0  0  0  0  0  0  0  0  0
  1  6  1  0  0  0  0
  2  1  2  0  0  0  0
  2  3  1  0  0  0  0
  3  4  2  0  0  0  0
  4  5  1  0  0  0  0
  4  8  1  0  0  0  0
  5  9  1  0  0  0  0
  6 10  1  0  0  0  0
  6  5  2  0  0  0  0
  7  1  1  0  0  0  0
 10 12  2  0  0  0  0
 11 10  2  0  0  0  0
 14 13  3  0  0  0  0
M  RAD  2   2   2   3   2
M  END
