Coordinates from ORCA-job 4-NO2-C6H3-N2-B3LYPG-aug-cc-pVDZ-scan-d09-49-n400
 OpenBabel11091809093D

 14 13  0  0  0  0  0  0  0  0999 V2000
   -2.4917   -0.3547   -0.7064 C   0  0  0  0  0  0  0  0  0  0  0  0
   -1.1125   -0.3533   -0.8109 C   0  0  0  0  0  0  0  0  0  0  0  0
   -0.3316    0.5219   -0.3731 C   0  0  0  0  0  0  0  0  0  0  0  0
   -0.6378    1.6879    0.3131 C   0  0  0  0  0  0  0  0  0  0  0  0
   -2.0332    1.7963    0.4812 C   0  0  0  0  0  0  0  0  0  0  0  0
   -2.9091    0.8074   -0.0140 C   0  0  0  0  0  0  0  0  0  0  0  0
   -3.2003   -1.0921   -1.0715 H   0  0  0  0  0  0  0  0  0  0  0  0
    0.0561    2.4371    0.6860 H   0  0  0  0  0  0  0  0  0  0  0  0
   -2.4583    2.6527    1.0005 H   0  0  0  0  0  0  0  0  0  0  0  0
   -4.3619    0.9900    0.2006 N   0  0  0  0  0  0  0  0  0  0  0  0
   -5.1124    0.1217   -0.2365 O   0  0  0  0  0  0  0  0  0  0  0  0
   -4.7348    1.9953    0.7995 O   0  0  0  0  0  0  0  0  0  0  0  0
    3.0718    1.7054    0.0392 N   0  0  0  0  0  0  0  0  0  0  0  0
    3.9751    1.1879   -0.3285 N   0  0  0  0  0  0  0  0  0  0  0  0
  1  6  1  0  0  0  0
  2  1  2  0  0  0  0
  2  3  1  0  0  0  0
  3  4  2  0  0  0  0
  4  5  1  0  0  0  0
  4  8  1  0  0  0  0
  5  9  1  0  0  0  0
  6 10  1  0  0  0  0
  6  5  2  0  0  0  0
  7  1  1  0  0  0  0
 10 12  2  0  0  0  0
 11 10  2  0  0  0  0
 14 13  3  0  0  0  0
M  RAD  2   2   2   3   2
M  END
