Coordinates from ORCA-job 4-NO2-C6H3-N2-B3LYPG-aug-cc-pVDZ-scan-d09-49-n400
 OpenBabel11091809093D

 14 13  0  0  0  0  0  0  0  0999 V2000
   -2.9252   -0.4753   -0.7421 C   0  0  0  0  0  0  0  0  0  0  0  0
   -1.6047   -0.7792   -1.0153 C   0  0  0  0  0  0  0  0  0  0  0  0
   -0.5959   -0.1038   -0.7087 C   0  0  0  0  0  0  0  0  0  0  0  0
   -0.5507    1.1047   -0.0261 C   0  0  0  0  0  0  0  0  0  0  0  0
   -1.8540    1.5224    0.3103 C   0  0  0  0  0  0  0  0  0  0  0  0
   -2.9831    0.7530   -0.0405 C   0  0  0  0  0  0  0  0  0  0  0  0
   -3.8195   -1.0377   -0.9932 H   0  0  0  0  0  0  0  0  0  0  0  0
    0.3313    1.6847    0.2359 H   0  0  0  0  0  0  0  0  0  0  0  0
   -2.0084    2.4538    0.8509 H   0  0  0  0  0  0  0  0  0  0  0  0
   -4.3198    1.2560    0.3469 N   0  0  0  0  0  0  0  0  0  0  0  0
   -5.2932    0.5735    0.0381 O   0  0  0  0  0  0  0  0  0  0  0  0
   -4.3811    2.3188    0.9592 O   0  0  0  0  0  0  0  0  0  0  0  0
    3.3112    2.4081    0.4187 N   0  0  0  0  0  0  0  0  0  0  0  0
    4.4127    2.4242    0.3450 N   0  0  0  0  0  0  0  0  0  0  0  0
  1  6  1  0  0  0  0
  2  1  2  0  0  0  0
  2  3  1  0  0  0  0
  3  4  2  0  0  0  0
  4  8  1  0  0  0  0
  4  5  1  0  0  0  0
  5  9  1  0  0  0  0
  6  5  2  0  0  0  0
  6 10  1  0  0  0  0
  7  1  1  0  0  0  0
 10 12  2  0  0  0  0
 11 10  2  0  0  0  0
 14 13  3  0  0  0  0
M  RAD  2   2   2   3   2
M  END
