Coordinates from ORCA-job 4-NO2-C6H3-N2-B3LYPG-aug-cc-pVDZ-scan-d09-49-n400
 OpenBabel11091809093D

 14 13  0  0  0  0  0  0  0  0999 V2000
   -2.8823   -0.4669   -0.7403 C   0  0  0  0  0  0  0  0  0  0  0  0
   -1.5491   -0.7311   -0.9925 C   0  0  0  0  0  0  0  0  0  0  0  0
   -0.5658   -0.0271   -0.6677 C   0  0  0  0  0  0  0  0  0  0  0  0
   -0.5677    1.1801    0.0183 C   0  0  0  0  0  0  0  0  0  0  0  0
   -1.8879    1.5585    0.3344 C   0  0  0  0  0  0  0  0  0  0  0  0
   -2.9879    0.7571   -0.0368 C   0  0  0  0  0  0  0  0  0  0  0  0
   -3.7554   -1.0546   -1.0075 H   0  0  0  0  0  0  0  0  0  0  0  0
    0.2931    1.7842    0.2957 H   0  0  0  0  0  0  0  0  0  0  0  0
   -2.0786    2.4834    0.8746 H   0  0  0  0  0  0  0  0  0  0  0  0
   -4.3451    1.2193    0.3298 N   0  0  0  0  0  0  0  0  0  0  0  0
   -5.2929    0.5111    0.0000 O   0  0  0  0  0  0  0  0  0  0  0  0
   -4.4480    2.2799    0.9404 O   0  0  0  0  0  0  0  0  0  0  0  0
    3.3460    2.3392    0.3763 N   0  0  0  0  0  0  0  0  0  0  0  0
    4.4412    2.2703    0.2546 N   0  0  0  0  0  0  0  0  0  0  0  0
  1  6  1  0  0  0  0
  2  1  2  0  0  0  0
  2  3  1  0  0  0  0
  3  4  2  0  0  0  0
  4  8  1  0  0  0  0
  4  5  1  0  0  0  0
  5  9  1  0  0  0  0
  6 10  1  0  0  0  0
  6  5  2  0  0  0  0
  7  1  1  0  0  0  0
 10 12  2  0  0  0  0
 11 10  2  0  0  0  0
 14 13  3  0  0  0  0
M  RAD  2   2   2   3   2
M  END
