Coordinates from ORCA-job 4-NO2-C6H3-N2-B3LYPG-aug-cc-pVDZ-scan-d09-49-n400
 OpenBabel11091809093D

 14 13  0  0  0  0  0  0  0  0999 V2000
   -2.3048   -0.2931   -0.6862 C   0  0  0  0  0  0  0  0  0  0  0  0
   -0.9247   -0.2007   -0.7390 C   0  0  0  0  0  0  0  0  0  0  0  0
   -0.2271    0.7252   -0.2659 C   0  0  0  0  0  0  0  0  0  0  0  0
   -0.6367    1.8626    0.4120 C   0  0  0  0  0  0  0  0  0  0  0  0
   -2.0410    1.8761    0.5269 C   0  0  0  0  0  0  0  0  0  0  0  0
   -2.8274    0.8330   -0.0061 C   0  0  0  0  0  0  0  0  0  0  0  0
   -2.9474   -1.0744   -1.0812 H   0  0  0  0  0  0  0  0  0  0  0  0
   -0.0049    2.6515    0.8122 H   0  0  0  0  0  0  0  0  0  0  0  0
   -2.5429    2.6983    1.0326 H   0  0  0  0  0  0  0  0  0  0  0  0
   -4.2964    0.9152    0.1527 N   0  0  0  0  0  0  0  0  0  0  0  0
   -4.9689    0.0002   -0.3152 O   0  0  0  0  0  0  0  0  0  0  0  0
   -4.7596    1.8882    0.7420 O   0  0  0  0  0  0  0  0  0  0  0  0
    2.6679    1.3926   -0.1078 N   0  0  0  0  0  0  0  0  0  0  0  0
    3.5335    0.8286   -0.4975 N   0  0  0  0  0  0  0  0  0  0  0  0
  1  6  1  0  0  0  0
  2  1  2  0  0  0  0
  2  3  1  0  0  0  0
  3  4  2  0  0  0  0
  4  5  1  0  0  0  0
  4  8  1  0  0  0  0
  5  9  1  0  0  0  0
  6 10  1  0  0  0  0
  6  5  2  0  0  0  0
  7  1  1  0  0  0  0
 10 12  2  0  0  0  0
 11 10  2  0  0  0  0
 14 13  3  0  0  0  0
M  RAD  2   2   2   3   2
M  END
