Coordinates from ORCA-job 4-NO2-C6H3-N2-B3LYPG-aug-cc-pVDZ-scan-d09-49-n400
 OpenBabel11091809093D

 14 13  0  0  0  0  0  0  0  0999 V2000
   -2.0791   -0.2207   -0.6628 C   0  0  0  0  0  0  0  0  0  0  0  0
   -0.6893   -0.0949   -0.6971 C   0  0  0  0  0  0  0  0  0  0  0  0
   -0.1207    0.9025   -0.1733 C   0  0  0  0  0  0  0  0  0  0  0  0
   -0.6022    2.0096    0.4929 C   0  0  0  0  0  0  0  0  0  0  0  0
   -2.0049    1.9473    0.5642 C   0  0  0  0  0  0  0  0  0  0  0  0
   -2.7016    0.8591   -0.0015 C   0  0  0  0  0  0  0  0  0  0  0  0
   -2.6665   -1.0345   -1.0809 H   0  0  0  0  0  0  0  0  0  0  0  0
   -0.0171    2.8257    0.9123 H   0  0  0  0  0  0  0  0  0  0  0  0
   -2.5700    2.7359    1.0556 H   0  0  0  0  0  0  0  0  0  0  0  0
   -4.1783    0.8524    0.1070 N   0  0  0  0  0  0  0  0  0  0  0  0
   -4.7793   -0.0988   -0.3847 O   0  0  0  0  0  0  0  0  0  0  0  0
   -4.7187    1.7921    0.6857 O   0  0  0  0  0  0  0  0  0  0  0  0
    1.9926    1.1001   -0.2223 N   0  0  0  0  0  0  0  0  0  0  0  0
    2.8545    0.5276   -0.6157 N   0  0  0  0  0  0  0  0  0  0  0  0
  1  6  1  0  0  0  0
  2  1  2  0  0  0  0
  2  3  1  0  0  0  0
  3  4  2  0  0  0  0
  4  5  1  0  0  0  0
  4  8  1  0  0  0  0
  5  9  1  0  0  0  0
  6 10  1  0  0  0  0
  6  5  2  0  0  0  0
  7  1  1  0  0  0  0
 10 12  2  0  0  0  0
 11 10  2  0  0  0  0
 14 13  3  0  0  0  0
M  RAD  2   2   2   3   2
M  END
