Coordinates from ORCA-job 4-NO2-C6H3-N2-B3LYPG-aug-cc-pVDZ-scan-d09-49-n400
 OpenBabel11091809093D

 14 13  0  0  0  0  0  0  0  0999 V2000
   -2.9430   -0.4784   -0.7422 C   0  0  0  0  0  0  0  0  0  0  0  0
   -1.6283   -0.7986   -1.0248 C   0  0  0  0  0  0  0  0  0  0  0  0
   -0.6092   -0.1352   -0.7259 C   0  0  0  0  0  0  0  0  0  0  0  0
   -0.5445    1.0728   -0.0445 C   0  0  0  0  0  0  0  0  0  0  0  0
   -1.8400    1.5066    0.3012 C   0  0  0  0  0  0  0  0  0  0  0  0
   -2.9809    0.7508   -0.0409 C   0  0  0  0  0  0  0  0  0  0  0  0
   -3.8458   -1.0300   -0.9865 H   0  0  0  0  0  0  0  0  0  0  0  0
    0.3468    1.6415    0.2104 H   0  0  0  0  0  0  0  0  0  0  0  0
   -1.9791    2.4402    0.8424 H   0  0  0  0  0  0  0  0  0  0  0  0
   -4.3085    1.2702    0.3559 N   0  0  0  0  0  0  0  0  0  0  0  0
   -5.2925    0.6012    0.0513 O   0  0  0  0  0  0  0  0  0  0  0  0
   -4.3527    2.3358    0.9648 O   0  0  0  0  0  0  0  0  0  0  0  0
    3.2978    2.4369    0.4358 N   0  0  0  0  0  0  0  0  0  0  0  0
    4.3994    2.4898    0.3825 N   0  0  0  0  0  0  0  0  0  0  0  0
  1  6  1  0  0  0  0
  2  1  2  0  0  0  0
  2  3  1  0  0  0  0
  3  4  2  0  0  0  0
  4  8  1  0  0  0  0
  4  5  1  0  0  0  0
  5  9  1  0  0  0  0
  6  5  2  0  0  0  0
  6 10  1  0  0  0  0
  7  1  1  0  0  0  0
 10 12  2  0  0  0  0
 11 10  2  0  0  0  0
 14 13  3  0  0  0  0
M  RAD  2   2   2   3   2
M  END
