Coordinates from ORCA-job 4-NO2-C6H3-N2-B3LYPG-aug-cc-pVDZ-scan-d09-49-n400
 OpenBabel11091809093D

 14 14  0  0  0  0  0  0  0  0999 V2000
   -1.9712   -0.2454   -0.5463 C   0  0  0  0  0  0  0  0  0  0  0  0
   -0.5675   -0.3093   -0.7612 C   0  0  0  0  0  0  0  0  0  0  0  0
    0.1261    0.8632   -0.1932 C   0  0  0  0  0  0  0  0  0  0  0  0
   -0.5457    1.9560    0.4929 C   0  0  0  0  0  0  0  0  0  0  0  0
   -1.9113    1.9636    0.5477 C   0  0  0  0  0  0  0  0  0  0  0  0
   -2.6048    0.8638   -0.0102 C   0  0  0  0  0  0  0  0  0  0  0  0
   -2.5872   -1.0903   -0.8578 H   0  0  0  0  0  0  0  0  0  0  0  0
    0.0487    2.7480    0.9510 H   0  0  0  0  0  0  0  0  0  0  0  0
   -2.4629    2.7692    1.0244 H   0  0  0  0  0  0  0  0  0  0  0  0
   -4.0899    0.8981    0.0448 N   0  0  0  0  0  0  0  0  0  0  0  0
   -4.7022    0.1253   -0.6822 O   0  0  0  0  0  0  0  0  0  0  0  0
   -4.6057    1.6993    0.8218 O   0  0  0  0  0  0  0  0  0  0  0  0
    1.2352    0.9152   -0.3437 N   0  0  0  0  0  0  0  0  0  0  0  0
    2.3578    0.9468   -0.5085 N   0  0  0  0  0  0  0  0  0  0  0  0
  1  6  1  0  0  0  0
  2  1  2  0  0  0  0
  2  3  1  0  0  0  0
  3  4  2  0  0  0  0
  4  5  1  0  0  0  0
  4  8  1  0  0  0  0
  5  9  1  0  0  0  0
  6 10  1  0  0  0  0
  6  5  2  0  0  0  0
  7  1  1  0  0  0  0
 10 12  2  0  0  0  0
 11 10  2  0  0  0  0
 13  3  1  0  0  0  0
 14 13  1  0  0  0  0
M  RAD  3   2   2  13   2  14   3
M  END
