Coordinates from ORCA-job 4-NO2-C6H3-N2-B3LYPG-aug-cc-pVDZ-scan-d09-49-n400
 OpenBabel11091809093D

 14 13  0  0  0  0  0  0  0  0999 V2000
   -2.5475   -0.3722   -0.7122 C   0  0  0  0  0  0  0  0  0  0  0  0
   -1.1701   -0.4023   -0.8342 C   0  0  0  0  0  0  0  0  0  0  0  0
   -0.3632    0.4552   -0.4083 C   0  0  0  0  0  0  0  0  0  0  0  0
   -0.6353    1.6289    0.2795 C   0  0  0  0  0  0  0  0  0  0  0  0
   -2.0254    1.7696    0.4653 C   0  0  0  0  0  0  0  0  0  0  0  0
   -2.9297    0.8002   -0.0168 C   0  0  0  0  0  0  0  0  0  0  0  0
   -3.2772   -1.0940   -1.0668 H   0  0  0  0  0  0  0  0  0  0  0  0
    0.0811    2.3620    0.6415 H   0  0  0  0  0  0  0  0  0  0  0  0
   -2.4241    2.6364    0.9882 H   0  0  0  0  0  0  0  0  0  0  0  0
   -4.3751    1.0160    0.2159 N   0  0  0  0  0  0  0  0  0  0  0  0
   -5.1505    0.1636   -0.2091 O   0  0  0  0  0  0  0  0  0  0  0  0
   -4.7175    2.0300    0.8183 O   0  0  0  0  0  0  0  0  0  0  0  0
    3.1579    1.7900    0.0809 N   0  0  0  0  0  0  0  0  0  0  0  0
    4.0960    1.3200   -0.2628 N   0  0  0  0  0  0  0  0  0  0  0  0
  1  6  1  0  0  0  0
  2  1  2  0  0  0  0
  2  3  1  0  0  0  0
  3  4  2  0  0  0  0
  4  5  1  0  0  0  0
  4  8  1  0  0  0  0
  5  9  1  0  0  0  0
  6 10  1  0  0  0  0
  6  5  2  0  0  0  0
  7  1  1  0  0  0  0
 10 12  2  0  0  0  0
 11 10  2  0  0  0  0
 14 13  3  0  0  0  0
M  RAD  2   2   2   3   2
M  END
