Coordinates from ORCA-job 4-NO2-C6H3-N2-B3LYPG-aug-cc-pVDZ-scan-d09-49-n400
 OpenBabel11091809093D

 14 14  0  0  0  0  0  0  0  0999 V2000
   -1.9785   -0.2336   -0.5716 C   0  0  0  0  0  0  0  0  0  0  0  0
   -0.5660   -0.3002   -0.7588 C   0  0  0  0  0  0  0  0  0  0  0  0
    0.0829    0.8621   -0.1912 C   0  0  0  0  0  0  0  0  0  0  0  0
   -0.5539    1.9702    0.4794 C   0  0  0  0  0  0  0  0  0  0  0  0
   -1.9222    1.9690    0.5458 C   0  0  0  0  0  0  0  0  0  0  0  0
   -2.6107    0.8648   -0.0114 C   0  0  0  0  0  0  0  0  0  0  0  0
   -2.5982   -1.0679   -0.9032 H   0  0  0  0  0  0  0  0  0  0  0  0
    0.0381    2.7741    0.9188 H   0  0  0  0  0  0  0  0  0  0  0  0
   -2.4774    2.7726    1.0213 H   0  0  0  0  0  0  0  0  0  0  0  0
   -4.0971    0.8894    0.0623 N   0  0  0  0  0  0  0  0  0  0  0  0
   -4.7143    0.1059   -0.6490 O   0  0  0  0  0  0  0  0  0  0  0  0
   -4.6095    1.6855    0.8467 O   0  0  0  0  0  0  0  0  0  0  0  0
    1.3049    0.8991   -0.3342 N   0  0  0  0  0  0  0  0  0  0  0  0
    2.4215    0.9124   -0.4755 N   0  0  0  0  0  0  0  0  0  0  0  0
  1  6  1  0  0  0  0
  2  1  2  0  0  0  0
  2  3  1  0  0  0  0
  3  4  2  0  0  0  0
  4  5  1  0  0  0  0
  4  8  1  0  0  0  0
  5  9  1  0  0  0  0
  6 10  1  0  0  0  0
  6  5  2  0  0  0  0
  7  1  1  0  0  0  0
 10 12  2  0  0  0  0
 11 10  2  0  0  0  0
 13  3  1  0  0  0  0
 14 13  1  0  0  0  0
M  RAD  3   2   2  13   2  14   3
M  END
