Coordinates from ORCA-job 4-NO2-C6H3-N2-B3LYPG-aug-cc-pVDZ-scan-d09-49-n400
 OpenBabel11091809093D

 14 13  0  0  0  0  0  0  0  0999 V2000
   -2.0903   -0.2246   -0.6637 C   0  0  0  0  0  0  0  0  0  0  0  0
   -0.7022   -0.0945   -0.6959 C   0  0  0  0  0  0  0  0  0  0  0  0
   -0.1262    0.8980   -0.1757 C   0  0  0  0  0  0  0  0  0  0  0  0
   -0.6052    2.0061    0.4912 C   0  0  0  0  0  0  0  0  0  0  0  0
   -2.0085    1.9444    0.5635 C   0  0  0  0  0  0  0  0  0  0  0  0
   -2.7086    0.8576   -0.0010 C   0  0  0  0  0  0  0  0  0  0  0  0
   -2.6787   -1.0378   -1.0811 H   0  0  0  0  0  0  0  0  0  0  0  0
   -0.0200    2.8220    0.9103 H   0  0  0  0  0  0  0  0  0  0  0  0
   -2.5721    2.7338    1.0554 H   0  0  0  0  0  0  0  0  0  0  0  0
   -4.1850    0.8536    0.1097 N   0  0  0  0  0  0  0  0  0  0  0  0
   -4.7885   -0.0952   -0.3839 O   0  0  0  0  0  0  0  0  0  0  0  0
   -4.7232    1.7957    0.6863 O   0  0  0  0  0  0  0  0  0  0  0  0
    2.0360    1.1117   -0.2199 N   0  0  0  0  0  0  0  0  0  0  0  0
    2.8918    0.5326   -0.6160 N   0  0  0  0  0  0  0  0  0  0  0  0
  1  6  1  0  0  0  0
  2  1  2  0  0  0  0
  2  3  1  0  0  0  0
  3  4  2  0  0  0  0
  4  5  1  0  0  0  0
  4  8  1  0  0  0  0
  5  9  1  0  0  0  0
  6 10  1  0  0  0  0
  6  5  2  0  0  0  0
  7  1  1  0  0  0  0
 10 12  2  0  0  0  0
 11 10  2  0  0  0  0
 14 13  3  0  0  0  0
M  RAD  2   2   2   3   2
M  END
