Coordinates from ORCA-job 4-NO2-C6H3-N2-B3LYPG-aug-cc-pVDZ-scan-d09-49-n400
 OpenBabel11091809093D

 14 14  0  0  0  0  0  0  0  0999 V2000
   -1.9871   -0.1973   -0.6346 C   0  0  0  0  0  0  0  0  0  0  0  0
   -0.5650   -0.2457   -0.7711 C   0  0  0  0  0  0  0  0  0  0  0  0
   -0.0037    0.8810   -0.1895 C   0  0  0  0  0  0  0  0  0  0  0  0
   -0.5714    1.9960    0.4732 C   0  0  0  0  0  0  0  0  0  0  0  0
   -1.9483    1.9709    0.5613 C   0  0  0  0  0  0  0  0  0  0  0  0
   -2.6247    0.8659   -0.0047 C   0  0  0  0  0  0  0  0  0  0  0  0
   -2.6053   -1.0046   -1.0277 H   0  0  0  0  0  0  0  0  0  0  0  0
    0.0212    2.8129    0.8854 H   0  0  0  0  0  0  0  0  0  0  0  0
   -2.5104    2.7635    1.0462 H   0  0  0  0  0  0  0  0  0  0  0  0
   -4.1123    0.8614    0.1022 N   0  0  0  0  0  0  0  0  0  0  0  0
   -4.7238   -0.0311   -0.4728 O   0  0  0  0  0  0  0  0  0  0  0  0
   -4.6367    1.7540    0.7650 O   0  0  0  0  0  0  0  0  0  0  0  0
    1.4428    0.8838   -0.3078 N   0  0  0  0  0  0  0  0  0  0  0  0
    2.5441    0.7927   -0.4456 N   0  0  0  0  0  0  0  0  0  0  0  0
  1  6  1  0  0  0  0
  2  1  2  0  0  0  0
  2  3  1  0  0  0  0
  3  4  2  0  0  0  0
  4  5  1  0  0  0  0
  4  8  1  0  0  0  0
  5  9  1  0  0  0  0
  6 10  1  0  0  0  0
  6  5  2  0  0  0  0
  7  1  1  0  0  0  0
 10 12  2  0  0  0  0
 11 10  2  0  0  0  0
 13  3  1  0  0  0  0
 14 13  1  0  0  0  0
M  RAD  3   2   2  13   2  14   3
M  END
