Coordinates from ORCA-job 4-NO2-C6H3-N2-B3LYPG-aug-cc-pVDZ-scan-d09-49-n400
 OpenBabel11091809093D

 14 13  0  0  0  0  0  0  0  0999 V2000
   -2.9382   -0.4776   -0.7424 C   0  0  0  0  0  0  0  0  0  0  0  0
   -1.6218   -0.7934   -1.0220 C   0  0  0  0  0  0  0  0  0  0  0  0
   -0.6056   -0.1267   -0.7209 C   0  0  0  0  0  0  0  0  0  0  0  0
   -0.5462    1.0819   -0.0395 C   0  0  0  0  0  0  0  0  0  0  0  0
   -1.8441    1.5112    0.3031 C   0  0  0  0  0  0  0  0  0  0  0  0
   -2.9817    0.7516   -0.0415 C   0  0  0  0  0  0  0  0  0  0  0  0
   -3.8387   -1.0322   -0.9887 H   0  0  0  0  0  0  0  0  0  0  0  0
    0.3420    1.6544    0.2179 H   0  0  0  0  0  0  0  0  0  0  0  0
   -1.9876    2.4444    0.8437 H   0  0  0  0  0  0  0  0  0  0  0  0
   -4.3120    1.2668    0.3522 N   0  0  0  0  0  0  0  0  0  0  0  0
   -5.2928    0.5925    0.0493 O   0  0  0  0  0  0  0  0  0  0  0  0
   -4.3607    2.3303    0.9644 O   0  0  0  0  0  0  0  0  0  0  0  0
    3.3026    2.4292    0.4314 N   0  0  0  0  0  0  0  0  0  0  0  0
    4.4043    2.4709    0.3723 N   0  0  0  0  0  0  0  0  0  0  0  0
  1  6  1  0  0  0  0
  2  1  2  0  0  0  0
  2  3  1  0  0  0  0
  3  4  2  0  0  0  0
  4  8  1  0  0  0  0
  4  5  1  0  0  0  0
  5  9  1  0  0  0  0
  6  5  2  0  0  0  0
  6 10  1  0  0  0  0
  7  1  1  0  0  0  0
 10 12  2  0  0  0  0
 11 10  2  0  0  0  0
 14 13  3  0  0  0  0
M  RAD  2   2   2   3   2
M  END
