Coordinates from ORCA-job 4-NO2-C6H3-N2-B3LYPG-aug-cc-pVDZ-scan-d09-49-n400
 OpenBabel11091809093D

 14 14  0  0  0  0  0  0  0  0999 V2000
   -1.9683   -0.2461   -0.5414 C   0  0  0  0  0  0  0  0  0  0  0  0
   -0.5691   -0.3127   -0.7673 C   0  0  0  0  0  0  0  0  0  0  0  0
    0.1521    0.8690   -0.1978 C   0  0  0  0  0  0  0  0  0  0  0  0
   -0.5430    1.9520    0.4958 C   0  0  0  0  0  0  0  0  0  0  0  0
   -1.9071    1.9626    0.5472 C   0  0  0  0  0  0  0  0  0  0  0  0
   -2.6027    0.8651   -0.0111 C   0  0  0  0  0  0  0  0  0  0  0  0
   -2.5830   -1.0930   -0.8505 H   0  0  0  0  0  0  0  0  0  0  0  0
    0.0538    2.7389    0.9598 H   0  0  0  0  0  0  0  0  0  0  0  0
   -2.4564    2.7690    1.0255 H   0  0  0  0  0  0  0  0  0  0  0  0
   -4.0875    0.9021    0.0382 N   0  0  0  0  0  0  0  0  0  0  0  0
   -4.6977    0.1189   -0.6792 O   0  0  0  0  0  0  0  0  0  0  0  0
   -4.6042    1.7056    0.8121 O   0  0  0  0  0  0  0  0  0  0  0  0
    1.2014    0.9200   -0.3417 N   0  0  0  0  0  0  0  0  0  0  0  0
    2.3311    0.9520   -0.5103 N   0  0  0  0  0  0  0  0  0  0  0  0
  1  6  1  0  0  0  0
  2  1  2  0  0  0  0
  2  3  1  0  0  0  0
  3  4  2  0  0  0  0
  4  5  1  0  0  0  0
  4  8  1  0  0  0  0
  5  9  1  0  0  0  0
  6 10  1  0  0  0  0
  6  5  2  0  0  0  0
  7  1  1  0  0  0  0
 10 12  2  0  0  0  0
 11 10  2  0  0  0  0
 13  3  1  0  0  0  0
 14 13  1  0  0  0  0
M  RAD  3   2   2  13   2  14   3
M  END
