Coordinates from ORCA-job 4-NO2-C6H3-N2-B3LYPG-aug-cc-pVDZ-scan-d09-49-n400
 OpenBabel11091809093D

 14 13  0  0  0  0  0  0  0  0999 V2000
   -2.7187   -0.4250   -0.7290 C   0  0  0  0  0  0  0  0  0  0  0  0
   -1.3553   -0.5628   -0.9116 C   0  0  0  0  0  0  0  0  0  0  0  0
   -0.4606    0.2265   -0.5316 C   0  0  0  0  0  0  0  0  0  0  0  0
   -0.6101    1.4213    0.1589 C   0  0  0  0  0  0  0  0  0  0  0  0
   -1.9744    1.6733    0.4065 C   0  0  0  0  0  0  0  0  0  0  0  0
   -2.9742    0.7772   -0.0263 C   0  0  0  0  0  0  0  0  0  0  0  0
   -3.5183   -1.0883   -1.0448 H   0  0  0  0  0  0  0  0  0  0  0  0
    0.1771    2.0978    0.4831 H   0  0  0  0  0  0  0  0  0  0  0  0
   -2.2783    2.5714    0.9401 H   0  0  0  0  0  0  0  0  0  0  0  0
   -4.3858    1.1084    0.2699 N   0  0  0  0  0  0  0  0  0  0  0  0
   -5.2451    0.3189   -0.1132 O   0  0  0  0  0  0  0  0  0  0  0  0
   -4.6186    2.1492    0.8788 O   0  0  0  0  0  0  0  0  0  0  0  0
    3.3254    2.0701    0.2249 N   0  0  0  0  0  0  0  0  0  0  0  0
    4.3565    1.7653   -0.0263 N   0  0  0  0  0  0  0  0  0  0  0  0
  1  6  1  0  0  0  0
  2  1  2  0  0  0  0
  2  3  1  0  0  0  0
  3  4  2  0  0  0  0
  4  5  1  0  0  0  0
  4  8  1  0  0  0  0
  5  9  1  0  0  0  0
  6 10  1  0  0  0  0
  6  5  2  0  0  0  0
  7  1  1  0  0  0  0
 10 12  2  0  0  0  0
 11 10  2  0  0  0  0
 14 13  3  0  0  0  0
M  RAD  2   2   2   3   2
M  END
