Coordinates from ORCA-job 4-NO2-C6H3-N2-B3LYPG-aug-cc-pVDZ-scan-d09-49-n400
 OpenBabel11091809093D

 14 13  0  0  0  0  0  0  0  0999 V2000
   -2.3754   -0.3160   -0.6935 C   0  0  0  0  0  0  0  0  0  0  0  0
   -0.9952   -0.2535   -0.7634 C   0  0  0  0  0  0  0  0  0  0  0  0
   -0.2653    0.6538   -0.3035 C   0  0  0  0  0  0  0  0  0  0  0  0
   -0.6414    1.8019    0.3779 C   0  0  0  0  0  0  0  0  0  0  0  0
   -2.0435    1.8485    0.5116 C   0  0  0  0  0  0  0  0  0  0  0  0
   -2.8615    0.8235   -0.0087 C   0  0  0  0  0  0  0  0  0  0  0  0
   -3.0412   -1.0827   -1.0786 H   0  0  0  0  0  0  0  0  0  0  0  0
    0.0127    2.5772    0.7687 H   0  0  0  0  0  0  0  0  0  0  0  0
   -2.5190    2.6832    1.0223 H   0  0  0  0  0  0  0  0  0  0  0  0
   -4.3258    0.9404    0.1695 N   0  0  0  0  0  0  0  0  0  0  0  0
   -5.0255    0.0409   -0.2884 O   0  0  0  0  0  0  0  0  0  0  0  0
   -4.7579    1.9253    0.7624 O   0  0  0  0  0  0  0  0  0  0  0  0
    2.8527    1.5194   -0.0501 N   0  0  0  0  0  0  0  0  0  0  0  0
    3.7057    0.9415   -0.4469 N   0  0  0  0  0  0  0  0  0  0  0  0
  1  6  1  0  0  0  0
  2  1  2  0  0  0  0
  2  3  1  0  0  0  0
  3  4  2  0  0  0  0
  4  5  1  0  0  0  0
  4  8  1  0  0  0  0
  5  9  1  0  0  0  0
  6 10  1  0  0  0  0
  6  5  2  0  0  0  0
  7  1  1  0  0  0  0
 10 12  2  0  0  0  0
 11 10  2  0  0  0  0
 14 13  3  0  0  0  0
M  RAD  2   2   2   3   2
M  END
