Coordinates from ORCA-job 4-NO2-C6H3-N2-B3LYPG-aug-cc-pVDZ-scan-d09-49-n400
 OpenBabel11091809093D

 14 14  0  0  0  0  0  0  0  0999 V2000
   -1.9736   -0.2428   -0.5521 C   0  0  0  0  0  0  0  0  0  0  0  0
   -0.5673   -0.3080   -0.7589 C   0  0  0  0  0  0  0  0  0  0  0  0
    0.1150    0.8604   -0.1891 C   0  0  0  0  0  0  0  0  0  0  0  0
   -0.5475    1.9591    0.4909 C   0  0  0  0  0  0  0  0  0  0  0  0
   -1.9140    1.9653    0.5470 C   0  0  0  0  0  0  0  0  0  0  0  0
   -2.6064    0.8646   -0.0112 C   0  0  0  0  0  0  0  0  0  0  0  0
   -2.5910   -1.0849   -0.8683 H   0  0  0  0  0  0  0  0  0  0  0  0
    0.0458    2.7543    0.9443 H   0  0  0  0  0  0  0  0  0  0  0  0
   -2.4666    2.7711    1.0220 H   0  0  0  0  0  0  0  0  0  0  0  0
   -4.0918    0.8980    0.0465 N   0  0  0  0  0  0  0  0  0  0  0  0
   -4.7051    0.1212   -0.6755 O   0  0  0  0  0  0  0  0  0  0  0  0
   -4.6070    1.6932    0.8301 O   0  0  0  0  0  0  0  0  0  0  0  0
    1.2543    0.9111   -0.3420 N   0  0  0  0  0  0  0  0  0  0  0  0
    2.3748    0.9407   -0.5044 N   0  0  0  0  0  0  0  0  0  0  0  0
  1  6  1  0  0  0  0
  2  1  2  0  0  0  0
  2  3  1  0  0  0  0
  3  4  2  0  0  0  0
  4  5  1  0  0  0  0
  4  8  1  0  0  0  0
  5  9  1  0  0  0  0
  6 10  1  0  0  0  0
  6  5  2  0  0  0  0
  7  1  1  0  0  0  0
 10 12  2  0  0  0  0
 11 10  2  0  0  0  0
 13  3  1  0  0  0  0
 14 13  1  0  0  0  0
M  RAD  3   2   2  13   2  14   3
M  END
