Coordinates from ORCA-job 4-NO2-C6H3-N2-B3LYPG-aug-cc-pVDZ-scan-d09-49-n400
 OpenBabel11091809093D

 14 13  0  0  0  0  0  0  0  0999 V2000
   -2.6724   -0.4111   -0.7247 C   0  0  0  0  0  0  0  0  0  0  0  0
   -1.3037   -0.5178   -0.8897 C   0  0  0  0  0  0  0  0  0  0  0  0
   -0.4343    0.2926   -0.4956 C   0  0  0  0  0  0  0  0  0  0  0  0
   -0.6197    1.4823    0.1946 C   0  0  0  0  0  0  0  0  0  0  0  0
   -1.9928    1.7018    0.4241 C   0  0  0  0  0  0  0  0  0  0  0  0
   -2.9654    0.7833   -0.0236 C   0  0  0  0  0  0  0  0  0  0  0  0
   -3.4522   -1.0922   -1.0522 H   0  0  0  0  0  0  0  0  0  0  0  0
    0.1474    2.1759    0.5302 H   0  0  0  0  0  0  0  0  0  0  0  0
   -2.3248    2.5915    0.9550 H   0  0  0  0  0  0  0  0  0  0  0  0
   -4.3882    1.0810    0.2541 N   0  0  0  0  0  0  0  0  0  0  0  0
   -5.2235    0.2722   -0.1415 O   0  0  0  0  0  0  0  0  0  0  0  0
   -4.6534    2.1147    0.8618 O   0  0  0  0  0  0  0  0  0  0  0  0
    3.2985    1.9938    0.1846 N   0  0  0  0  0  0  0  0  0  0  0  0
    4.3040    1.6355   -0.0975 N   0  0  0  0  0  0  0  0  0  0  0  0
  1  6  1  0  0  0  0
  2  1  2  0  0  0  0
  2  3  1  0  0  0  0
  3  4  2  0  0  0  0
  4  5  1  0  0  0  0
  4  8  1  0  0  0  0
  5  9  1  0  0  0  0
  6 10  1  0  0  0  0
  6  5  2  0  0  0  0
  7  1  1  0  0  0  0
 10 12  2  0  0  0  0
 11 10  2  0  0  0  0
 14 13  3  0  0  0  0
M  RAD  2   2   2   3   2
M  END
