Coordinates from ORCA-job 4-NO2-C6H3-N2-B3LYPG-aug-cc-pVDZ-scan-d09-49-n400
 OpenBabel11091809093D

 14 13  0  0  0  0  0  0  0  0999 V2000
   -2.1959   -0.2587   -0.6748 C   0  0  0  0  0  0  0  0  0  0  0  0
   -0.8143   -0.1340   -0.7097 C   0  0  0  0  0  0  0  0  0  0  0  0
   -0.1769    0.8241   -0.2137 C   0  0  0  0  0  0  0  0  0  0  0  0
   -0.6237    1.9459    0.4584 C   0  0  0  0  0  0  0  0  0  0  0  0
   -2.0298    1.9137    0.5478 C   0  0  0  0  0  0  0  0  0  0  0  0
   -2.7698    0.8459   -0.0027 C   0  0  0  0  0  0  0  0  0  0  0  0
   -2.8072   -1.0587   -1.0828 H   0  0  0  0  0  0  0  0  0  0  0  0
   -0.0228    2.7526    0.8710 H   0  0  0  0  0  0  0  0  0  0  0  0
   -2.5677    2.7175    1.0460 H   0  0  0  0  0  0  0  0  0  0  0  0
   -4.2434    0.8803    0.1298 N   0  0  0  0  0  0  0  0  0  0  0  0
   -4.8777   -0.0536   -0.3539 O   0  0  0  0  0  0  0  0  0  0  0  0
   -4.7489    1.8371    0.7111 O   0  0  0  0  0  0  0  0  0  0  0  0
    2.3653    1.2274   -0.1793 N   0  0  0  0  0  0  0  0  0  0  0  0
    3.2324    0.6639   -0.5677 N   0  0  0  0  0  0  0  0  0  0  0  0
  1  6  1  0  0  0  0
  2  1  2  0  0  0  0
  2  3  1  0  0  0  0
  3  4  2  0  0  0  0
  4  5  1  0  0  0  0
  4  8  1  0  0  0  0
  5  9  1  0  0  0  0
  6 10  1  0  0  0  0
  6  5  2  0  0  0  0
  7  1  1  0  0  0  0
 10 12  2  0  0  0  0
 11 10  2  0  0  0  0
 14 13  3  0  0  0  0
M  RAD  2   2   2   3   2
M  END
