Coordinates from ORCA-job 4-NO2-C6H3-N2-B3LYPG-aug-cc-pVDZ-scan-d09-49-n400
 OpenBabel11091809093D

 14 13  0  0  0  0  0  0  0  0999 V2000
   -2.4686   -0.3470   -0.7040 C   0  0  0  0  0  0  0  0  0  0  0  0
   -1.0889   -0.3330   -0.8013 C   0  0  0  0  0  0  0  0  0  0  0  0
   -0.3183    0.5490   -0.3589 C   0  0  0  0  0  0  0  0  0  0  0  0
   -0.6392    1.7115    0.3264 C   0  0  0  0  0  0  0  0  0  0  0  0
   -2.0363    1.8073    0.4874 C   0  0  0  0  0  0  0  0  0  0  0  0
   -2.9004    0.8108   -0.0131 C   0  0  0  0  0  0  0  0  0  0  0  0
   -3.1685   -1.0906   -1.0733 H   0  0  0  0  0  0  0  0  0  0  0  0
    0.0461    2.4667    0.7033 H   0  0  0  0  0  0  0  0  0  0  0  0
   -2.4717    2.6595    1.0050 H   0  0  0  0  0  0  0  0  0  0  0  0
   -4.3559    0.9797    0.1939 N   0  0  0  0  0  0  0  0  0  0  0  0
   -5.0960    0.1042   -0.2466 O   0  0  0  0  0  0  0  0  0  0  0  0
   -4.7412    1.9805    0.7926 O   0  0  0  0  0  0  0  0  0  0  0  0
    3.0352    1.6709    0.0224 N   0  0  0  0  0  0  0  0  0  0  0  0
    3.9233    1.1340   -0.3544 N   0  0  0  0  0  0  0  0  0  0  0  0
  1  6  1  0  0  0  0
  2  1  2  0  0  0  0
  2  3  1  0  0  0  0
  3  4  2  0  0  0  0
  4  5  1  0  0  0  0
  4  8  1  0  0  0  0
  5  9  1  0  0  0  0
  6 10  1  0  0  0  0
  6  5  2  0  0  0  0
  7  1  1  0  0  0  0
 10 12  2  0  0  0  0
 11 10  2  0  0  0  0
 14 13  3  0  0  0  0
M  RAD  2   2   2   3   2
M  END
