Coordinates from ORCA-job 4-NO2-C6H3-N2-B3LYPG-aug-cc-pVDZ-scan-d09-49-n400
 OpenBabel11091809093D

 14 13  0  0  0  0  0  0  0  0999 V2000
   -2.1414   -0.2417   -0.6695 C   0  0  0  0  0  0  0  0  0  0  0  0
   -0.7572   -0.1100   -0.7006 C   0  0  0  0  0  0  0  0  0  0  0  0
   -0.1523    0.8653   -0.1924 C   0  0  0  0  0  0  0  0  0  0  0  0
   -0.6142    1.9802    0.4770 C   0  0  0  0  0  0  0  0  0  0  0  0
   -2.0198    1.9302    0.5562 C   0  0  0  0  0  0  0  0  0  0  0  0
   -2.7385    0.8521   -0.0019 C   0  0  0  0  0  0  0  0  0  0  0  0
   -2.7399   -1.0489   -1.0828 H   0  0  0  0  0  0  0  0  0  0  0  0
   -0.0240    2.7929    0.8939 H   0  0  0  0  0  0  0  0  0  0  0  0
   -2.5724    2.7260    1.0509 H   0  0  0  0  0  0  0  0  0  0  0  0
   -4.2136    0.8657    0.1188 N   0  0  0  0  0  0  0  0  0  0  0  0
   -4.8312   -0.0767   -0.3699 O   0  0  0  0  0  0  0  0  0  0  0  0
   -4.7371    1.8143    0.6982 O   0  0  0  0  0  0  0  0  0  0  0  0
    2.2024    1.1654   -0.2021 N   0  0  0  0  0  0  0  0  0  0  0  0
    3.0588    0.5886   -0.5965 N   0  0  0  0  0  0  0  0  0  0  0  0
  1  6  1  0  0  0  0
  2  1  2  0  0  0  0
  2  3  1  0  0  0  0
  3  4  2  0  0  0  0
  4  5  1  0  0  0  0
  4  8  1  0  0  0  0
  5  9  1  0  0  0  0
  6 10  1  0  0  0  0
  6  5  2  0  0  0  0
  7  1  1  0  0  0  0
 10 12  2  0  0  0  0
 11 10  2  0  0  0  0
 14 13  3  0  0  0  0
M  RAD  2   2   2   3   2
M  END
