Coordinates from ORCA-job 4-NO2-C6H3-N2-B3LYPG-aug-cc-pVDZ-scan-d09-49-n400
 OpenBabel11091809093D

 14 14  0  0  0  0  0  0  0  0999 V2000
   -2.0316   -0.2036   -0.6562 C   0  0  0  0  0  0  0  0  0  0  0  0
   -0.6324   -0.1087   -0.7090 C   0  0  0  0  0  0  0  0  0  0  0  0
   -0.0926    0.9155   -0.1680 C   0  0  0  0  0  0  0  0  0  0  0  0
   -0.5906    2.0180    0.4970 C   0  0  0  0  0  0  0  0  0  0  0  0
   -1.9887    1.9581    0.5697 C   0  0  0  0  0  0  0  0  0  0  0  0
   -2.6711    0.8641   -0.0002 C   0  0  0  0  0  0  0  0  0  0  0  0
   -2.6180   -1.0189   -1.0749 H   0  0  0  0  0  0  0  0  0  0  0  0
   -0.0034    2.8338    0.9160 H   0  0  0  0  0  0  0  0  0  0  0  0
   -2.5578    2.7439    1.0599 H   0  0  0  0  0  0  0  0  0  0  0  0
   -4.1496    0.8463    0.1026 N   0  0  0  0  0  0  0  0  0  0  0  0
   -4.7429   -0.1067   -0.3938 O   0  0  0  0  0  0  0  0  0  0  0  0
   -4.6982    1.7840    0.6776 O   0  0  0  0  0  0  0  0  0  0  0  0
    1.7939    1.0489   -0.2366 N   0  0  0  0  0  0  0  0  0  0  0  0
    2.7024    0.5286   -0.6047 N   0  0  0  0  0  0  0  0  0  0  0  0
  1  6  1  0  0  0  0
  2  1  2  0  0  0  0
  2  3  1  0  0  0  0
  3  4  2  0  0  0  0
  4  5  1  0  0  0  0
  4  8  1  0  0  0  0
  5  9  1  0  0  0  0
  6 10  1  0  0  0  0
  6  5  2  0  0  0  0
  7  1  1  0  0  0  0
 10 12  2  0  0  0  0
 11 10  2  0  0  0  0
 13  3  1  0  0  0  0
 14 13  2  0  0  0  0
M  RAD  2   2   2  14   2
M  END
