Coordinates from ORCA-job 4-NO2-C6H3-N2-B3LYPG-aug-cc-pVDZ-scan-d09-49-n400
 OpenBabel11091809093D

 14 13  0  0  0  0  0  0  0  0999 V2000
   -2.5342   -0.3675   -0.7122 C   0  0  0  0  0  0  0  0  0  0  0  0
   -1.1562   -0.3903   -0.8288 C   0  0  0  0  0  0  0  0  0  0  0  0
   -0.3562    0.4719   -0.3997 C   0  0  0  0  0  0  0  0  0  0  0  0
   -0.6358    1.6446    0.2871 C   0  0  0  0  0  0  0  0  0  0  0  0
   -2.0276    1.7772    0.4671 C   0  0  0  0  0  0  0  0  0  0  0  0
   -2.9250    0.8030   -0.0185 C   0  0  0  0  0  0  0  0  0  0  0  0
   -3.2588   -1.0931   -1.0696 H   0  0  0  0  0  0  0  0  0  0  0  0
    0.0746    2.3820    0.6523 H   0  0  0  0  0  0  0  0  0  0  0  0
   -2.4332    2.6419    0.9884 H   0  0  0  0  0  0  0  0  0  0  0  0
   -4.3725    1.0116    0.2085 N   0  0  0  0  0  0  0  0  0  0  0  0
   -5.1411    0.1496   -0.2095 O   0  0  0  0  0  0  0  0  0  0  0  0
   -4.7216    2.0184    0.8191 O   0  0  0  0  0  0  0  0  0  0  0  0
    3.1385    1.7682    0.0722 N   0  0  0  0  0  0  0  0  0  0  0  0
    4.0683    1.2859   -0.2769 N   0  0  0  0  0  0  0  0  0  0  0  0
  1  6  1  0  0  0  0
  2  1  2  0  0  0  0
  2  3  1  0  0  0  0
  3  4  2  0  0  0  0
  4  5  1  0  0  0  0
  4  8  1  0  0  0  0
  5  9  1  0  0  0  0
  6 10  1  0  0  0  0
  6  5  2  0  0  0  0
  7  1  1  0  0  0  0
 10 12  2  0  0  0  0
 11 10  2  0  0  0  0
 14 13  3  0  0  0  0
M  RAD  2   2   2   3   2
M  END
