Coordinates from ORCA-job 4-NO2-C6H3-N2-B3LYPG-aug-cc-pVDZ-scan-d09-49-n400
 OpenBabel11091809093D

 14 13  0  0  0  0  0  0  0  0999 V2000
   -2.6886   -0.4161   -0.7263 C   0  0  0  0  0  0  0  0  0  0  0  0
   -1.3217   -0.5333   -0.8973 C   0  0  0  0  0  0  0  0  0  0  0  0
   -0.4428    0.2692   -0.5083 C   0  0  0  0  0  0  0  0  0  0  0  0
   -0.6160    1.4610    0.1821 C   0  0  0  0  0  0  0  0  0  0  0  0
   -1.9861    1.6918    0.4178 C   0  0  0  0  0  0  0  0  0  0  0  0
   -2.9684    0.7812   -0.0246 C   0  0  0  0  0  0  0  0  0  0  0  0
   -3.4754   -1.0911   -1.0498 H   0  0  0  0  0  0  0  0  0  0  0  0
    0.1580    2.1489    0.5139 H   0  0  0  0  0  0  0  0  0  0  0  0
   -2.3083    2.5845    0.9497 H   0  0  0  0  0  0  0  0  0  0  0  0
   -4.3874    1.0906    0.2596 N   0  0  0  0  0  0  0  0  0  0  0  0
   -5.2312    0.2885   -0.1315 O   0  0  0  0  0  0  0  0  0  0  0  0
   -4.6412    2.1269    0.8679 O   0  0  0  0  0  0  0  0  0  0  0  0
    3.3067    2.0204    0.1987 N   0  0  0  0  0  0  0  0  0  0  0  0
    4.3217    1.6808   -0.0726 N   0  0  0  0  0  0  0  0  0  0  0  0
  1  6  1  0  0  0  0
  2  1  2  0  0  0  0
  2  3  1  0  0  0  0
  3  4  2  0  0  0  0
  4  5  1  0  0  0  0
  4  8  1  0  0  0  0
  5  9  1  0  0  0  0
  6 10  1  0  0  0  0
  6  5  2  0  0  0  0
  7  1  1  0  0  0  0
 10 12  2  0  0  0  0
 11 10  2  0  0  0  0
 14 13  3  0  0  0  0
M  RAD  2   2   2   3   2
M  END
