Coordinates from ORCA-job 4-NO2-C6H3-N2-B3LYPG-aug-cc-pVDZ-scan-d09-49-n400
 OpenBabel11091809093D

 14 14  0  0  0  0  0  0  0  0999 V2000
   -1.9744   -0.2413   -0.5555 C   0  0  0  0  0  0  0  0  0  0  0  0
   -0.5670   -0.3067   -0.7600 C   0  0  0  0  0  0  0  0  0  0  0  0
    0.1103    0.8628   -0.1937 C   0  0  0  0  0  0  0  0  0  0  0  0
   -0.5484    1.9617    0.4878 C   0  0  0  0  0  0  0  0  0  0  0  0
   -1.9150    1.9663    0.5462 C   0  0  0  0  0  0  0  0  0  0  0  0
   -2.6068    0.8649   -0.0118 C   0  0  0  0  0  0  0  0  0  0  0  0
   -2.5923   -1.0822   -0.8736 H   0  0  0  0  0  0  0  0  0  0  0  0
    0.0446    2.7580    0.9398 H   0  0  0  0  0  0  0  0  0  0  0  0
   -2.4682    2.7711    1.0222 H   0  0  0  0  0  0  0  0  0  0  0  0
   -4.0924    0.8966    0.0492 N   0  0  0  0  0  0  0  0  0  0  0  0
   -4.7065    0.1185   -0.6705 O   0  0  0  0  0  0  0  0  0  0  0  0
   -4.6067    1.6905    0.8347 O   0  0  0  0  0  0  0  0  0  0  0  0
    1.2607    0.9090   -0.3404 N   0  0  0  0  0  0  0  0  0  0  0  0
    2.3817    0.9341   -0.4949 N   0  0  0  0  0  0  0  0  0  0  0  0
  1  6  1  0  0  0  0
  2  1  2  0  0  0  0
  2  3  1  0  0  0  0
  3  4  2  0  0  0  0
  4  5  1  0  0  0  0
  4  8  1  0  0  0  0
  5  9  1  0  0  0  0
  6 10  1  0  0  0  0
  6  5  2  0  0  0  0
  7  1  1  0  0  0  0
 10 12  2  0  0  0  0
 11 10  2  0  0  0  0
 13  3  1  0  0  0  0
 14 13  1  0  0  0  0
M  RAD  3   2   2  13   2  14   3
M  END
