Coordinates from ORCA-job 4-NO2-C6H3-N2-B3LYPG-aug-cc-pVDZ-scan-d09-49-n400
 OpenBabel11091809093D

 14 13  0  0  0  0  0  0  0  0999 V2000
   -2.6531   -0.4055   -0.7232 C   0  0  0  0  0  0  0  0  0  0  0  0
   -1.2823   -0.5001   -0.8812 C   0  0  0  0  0  0  0  0  0  0  0  0
   -0.4251    0.3198   -0.4807 C   0  0  0  0  0  0  0  0  0  0  0  0
   -0.6226    1.5078    0.2092 C   0  0  0  0  0  0  0  0  0  0  0  0
   -1.9995    1.7132    0.4306 C   0  0  0  0  0  0  0  0  0  0  0  0
   -2.9609    0.7858   -0.0232 C   0  0  0  0  0  0  0  0  0  0  0  0
   -3.4249   -1.0933   -1.0553 H   0  0  0  0  0  0  0  0  0  0  0  0
    0.1352    2.2092    0.5500 H   0  0  0  0  0  0  0  0  0  0  0  0
   -2.3434    2.5992    0.9601 H   0  0  0  0  0  0  0  0  0  0  0  0
   -4.3879    1.0703    0.2469 N   0  0  0  0  0  0  0  0  0  0  0  0
   -5.2135    0.2530   -0.1517 O   0  0  0  0  0  0  0  0  0  0  0  0
   -4.6658    2.1001    0.8556 O   0  0  0  0  0  0  0  0  0  0  0  0
    3.2844    1.9614    0.1680 N   0  0  0  0  0  0  0  0  0  0  0  0
    4.2789    1.5825   -0.1258 N   0  0  0  0  0  0  0  0  0  0  0  0
  1  6  1  0  0  0  0
  2  1  2  0  0  0  0
  2  3  1  0  0  0  0
  3  4  2  0  0  0  0
  4  5  1  0  0  0  0
  4  8  1  0  0  0  0
  5  9  1  0  0  0  0
  6 10  1  0  0  0  0
  6  5  2  0  0  0  0
  7  1  1  0  0  0  0
 10 12  2  0  0  0  0
 11 10  2  0  0  0  0
 14 13  3  0  0  0  0
M  RAD  2   2   2   3   2
M  END
