Coordinates from ORCA-job 4-NO2-C6H3-N2-B3LYPG-aug-cc-pVDZ-scan-d09-49-n400
 OpenBabel11091809093D

 14 13  0  0  0  0  0  0  0  0999 V2000
   -2.2501   -0.2754   -0.6803 C   0  0  0  0  0  0  0  0  0  0  0  0
   -0.8694   -0.1650   -0.7230 C   0  0  0  0  0  0  0  0  0  0  0  0
   -0.2008    0.7767   -0.2387 C   0  0  0  0  0  0  0  0  0  0  0  0
   -0.6314    1.9062    0.4364 C   0  0  0  0  0  0  0  0  0  0  0  0
   -2.0369    1.8961    0.5380 C   0  0  0  0  0  0  0  0  0  0  0  0
   -2.7994    0.8400   -0.0042 C   0  0  0  0  0  0  0  0  0  0  0  0
   -2.8764   -1.0665   -1.0822 H   0  0  0  0  0  0  0  0  0  0  0  0
   -0.0162    2.7047    0.8434 H   0  0  0  0  0  0  0  0  0  0  0  0
   -2.5575    2.7089    1.0399 H   0  0  0  0  0  0  0  0  0  0  0  0
   -4.2710    0.8973    0.1408 N   0  0  0  0  0  0  0  0  0  0  0  0
   -4.9236   -0.0281   -0.3350 O   0  0  0  0  0  0  0  0  0  0  0  0
   -4.7563    1.8617    0.7264 O   0  0  0  0  0  0  0  0  0  0  0  0
    2.5133    1.2960   -0.1511 N   0  0  0  0  0  0  0  0  0  0  0  0
    3.3952    0.7507   -0.5310 N   0  0  0  0  0  0  0  0  0  0  0  0
  1  6  1  0  0  0  0
  2  1  2  0  0  0  0
  2  3  1  0  0  0  0
  3  4  2  0  0  0  0
  4  5  1  0  0  0  0
  4  8  1  0  0  0  0
  5  9  1  0  0  0  0
  6 10  1  0  0  0  0
  6  5  2  0  0  0  0
  7  1  1  0  0  0  0
 10 12  2  0  0  0  0
 11 10  2  0  0  0  0
 14 13  3  0  0  0  0
M  RAD  2   2   2   3   2
M  END
