Coordinates from ORCA-job 4-NO2-C6H3-N2-B3LYPG-aug-cc-pVDZ-scan-d09-49-n400
 OpenBabel11091809093D

 14 14  0  0  0  0  0  0  0  0999 V2000
   -1.9859   -0.2030   -0.6269 C   0  0  0  0  0  0  0  0  0  0  0  0
   -0.5639   -0.2584   -0.7687 C   0  0  0  0  0  0  0  0  0  0  0  0
    0.0112    0.8767   -0.1901 C   0  0  0  0  0  0  0  0  0  0  0  0
   -0.5682    1.9936    0.4698 C   0  0  0  0  0  0  0  0  0  0  0  0
   -1.9433    1.9716    0.5566 C   0  0  0  0  0  0  0  0  0  0  0  0
   -2.6213    0.8652   -0.0064 C   0  0  0  0  0  0  0  0  0  0  0  0
   -2.6057   -1.0132   -1.0117 H   0  0  0  0  0  0  0  0  0  0  0  0
    0.0233    2.8114    0.8821 H   0  0  0  0  0  0  0  0  0  0  0  0
   -2.5046    2.7663    1.0389 H   0  0  0  0  0  0  0  0  0  0  0  0
   -4.1093    0.8648    0.0990 N   0  0  0  0  0  0  0  0  0  0  0  0
   -4.7246   -0.0032   -0.5082 O   0  0  0  0  0  0  0  0  0  0  0  0
   -4.6287    1.7352    0.7946 O   0  0  0  0  0  0  0  0  0  0  0  0
    1.4173    0.8800   -0.3109 N   0  0  0  0  0  0  0  0  0  0  0  0
    2.5232    0.8163   -0.4386 N   0  0  0  0  0  0  0  0  0  0  0  0
  1  6  1  0  0  0  0
  2  1  2  0  0  0  0
  2  3  1  0  0  0  0
  3  4  2  0  0  0  0
  4  5  1  0  0  0  0
  4  8  1  0  0  0  0
  5  9  1  0  0  0  0
  6 10  1  0  0  0  0
  6  5  2  0  0  0  0
  7  1  1  0  0  0  0
 10 12  2  0  0  0  0
 11 10  2  0  0  0  0
 13  3  1  0  0  0  0
 14 13  1  0  0  0  0
M  RAD  3   2   2  13   2  14   3
M  END
