Coordinates from ORCA-job 4-NO2-C6H3-N2-B3LYPG-aug-cc-pVDZ-scan-d09-49-n400
 OpenBabel11091809093D

 14 13  0  0  0  0  0  0  0  0999 V2000
   -2.1739   -0.2518   -0.6727 C   0  0  0  0  0  0  0  0  0  0  0  0
   -0.7914   -0.1231   -0.7054 C   0  0  0  0  0  0  0  0  0  0  0  0
   -0.1665    0.8416   -0.2047 C   0  0  0  0  0  0  0  0  0  0  0  0
   -0.6203    1.9605    0.4663 C   0  0  0  0  0  0  0  0  0  0  0  0
   -2.0262    1.9207    0.5513 C   0  0  0  0  0  0  0  0  0  0  0  0
   -2.7574    0.8486   -0.0024 C   0  0  0  0  0  0  0  0  0  0  0  0
   -2.7797   -1.0548   -1.0831 H   0  0  0  0  0  0  0  0  0  0  0  0
   -0.0240    2.7698    0.8808 H   0  0  0  0  0  0  0  0  0  0  0  0
   -2.5704    2.7211    1.0480 H   0  0  0  0  0  0  0  0  0  0  0  0
   -4.2317    0.8742    0.1250 N   0  0  0  0  0  0  0  0  0  0  0  0
   -4.8588   -0.0636   -0.3603 O   0  0  0  0  0  0  0  0  0  0  0  0
   -4.7447    1.8273    0.7060 O   0  0  0  0  0  0  0  0  0  0  0  0
    2.3013    1.2014   -0.1891 N   0  0  0  0  0  0  0  0  0  0  0  0
    3.1632    0.6315   -0.5803 N   0  0  0  0  0  0  0  0  0  0  0  0
  1  6  1  0  0  0  0
  2  1  2  0  0  0  0
  2  3  1  0  0  0  0
  3  4  2  0  0  0  0
  4  5  1  0  0  0  0
  4  8  1  0  0  0  0
  5  9  1  0  0  0  0
  6 10  1  0  0  0  0
  6  5  2  0  0  0  0
  7  1  1  0  0  0  0
 10 12  2  0  0  0  0
 11 10  2  0  0  0  0
 14 13  3  0  0  0  0
M  RAD  2   2   2   3   2
M  END
