Coordinates from ORCA-job 4-NO2-C6H3-N2-B3LYPG-aug-cc-pVDZ-scan-d09-49-n400
 OpenBabel11091809093D

 14 14  0  0  0  0  0  0  0  0999 V2000
   -2.0063   -0.1912   -0.6513 C   0  0  0  0  0  0  0  0  0  0  0  0
   -0.5979   -0.1355   -0.7274 C   0  0  0  0  0  0  0  0  0  0  0  0
   -0.0762    0.9155   -0.1697 C   0  0  0  0  0  0  0  0  0  0  0  0
   -0.5876    2.0171    0.4959 C   0  0  0  0  0  0  0  0  0  0  0  0
   -1.9807    1.9657    0.5734 C   0  0  0  0  0  0  0  0  0  0  0  0
   -2.6546    0.8681    0.0008 C   0  0  0  0  0  0  0  0  0  0  0  0
   -2.5978   -1.0047   -1.0686 H   0  0  0  0  0  0  0  0  0  0  0  0
    0.0036    2.8314    0.9137 H   0  0  0  0  0  0  0  0  0  0  0  0
   -2.5498    2.7509    1.0635 H   0  0  0  0  0  0  0  0  0  0  0  0
   -4.1352    0.8457    0.1015 N   0  0  0  0  0  0  0  0  0  0  0  0
   -4.7261   -0.1077   -0.3956 O   0  0  0  0  0  0  0  0  0  0  0  0
   -4.6856    1.7827    0.6763 O   0  0  0  0  0  0  0  0  0  0  0  0
    1.6717    1.0003   -0.2555 N   0  0  0  0  0  0  0  0  0  0  0  0
    2.6420    0.5652   -0.5777 N   0  0  0  0  0  0  0  0  0  0  0  0
  1  6  1  0  0  0  0
  2  1  2  0  0  0  0
  2  3  1  0  0  0  0
  3  4  2  0  0  0  0
  4  5  1  0  0  0  0
  4  8  1  0  0  0  0
  5  9  1  0  0  0  0
  6 10  1  0  0  0  0
  6  5  2  0  0  0  0
  7  1  1  0  0  0  0
 10 12  2  0  0  0  0
 11 10  2  0  0  0  0
 13  3  1  0  0  0  0
 14 13  2  0  0  0  0
M  RAD  2   2   2  14   2
M  END
