Coordinates from ORCA-job 4-NO2-C6H3-N2-B3LYPG-aug-cc-pVDZ-scan-d09-49-n400
 OpenBabel11091809093D

 14 13  0  0  0  0  0  0  0  0999 V2000
   -2.6960   -0.4181   -0.7278 C   0  0  0  0  0  0  0  0  0  0  0  0
   -1.3299   -0.5404   -0.9007 C   0  0  0  0  0  0  0  0  0  0  0  0
   -0.4473    0.2590   -0.5138 C   0  0  0  0  0  0  0  0  0  0  0  0
   -0.6140    1.4525    0.1762 C   0  0  0  0  0  0  0  0  0  0  0  0
   -1.9832    1.6879    0.4133 C   0  0  0  0  0  0  0  0  0  0  0  0
   -2.9699    0.7808   -0.0268 C   0  0  0  0  0  0  0  0  0  0  0  0
   -3.4859   -1.0903   -1.0495 H   0  0  0  0  0  0  0  0  0  0  0  0
    0.1616    2.1390    0.5070 H   0  0  0  0  0  0  0  0  0  0  0  0
   -2.3015    2.5822    0.9449 H   0  0  0  0  0  0  0  0  0  0  0  0
   -4.3872    1.0964    0.2593 N   0  0  0  0  0  0  0  0  0  0  0  0
   -5.2343    0.2933   -0.1226 O   0  0  0  0  0  0  0  0  0  0  0  0
   -4.6354    2.1302    0.8741 O   0  0  0  0  0  0  0  0  0  0  0  0
    3.3120    2.0319    0.2060 N   0  0  0  0  0  0  0  0  0  0  0  0
    4.3305    1.6991   -0.0604 N   0  0  0  0  0  0  0  0  0  0  0  0
  1  6  1  0  0  0  0
  2  1  2  0  0  0  0
  2  3  1  0  0  0  0
  3  4  2  0  0  0  0
  4  5  1  0  0  0  0
  4  8  1  0  0  0  0
  5  9  1  0  0  0  0
  6 10  1  0  0  0  0
  6  5  2  0  0  0  0
  7  1  1  0  0  0  0
 10 12  2  0  0  0  0
 11 10  2  0  0  0  0
 14 13  3  0  0  0  0
M  RAD  2   2   2   3   2
M  END
