Coordinates from ORCA-job 4-NO2-C6H3-N2-B3LYPG-aug-cc-pVDZ-scan-d09-49-n400
 OpenBabel11091809093D

 14 13  0  0  0  0  0  0  0  0999 V2000
   -2.7424   -0.4318   -0.7311 C   0  0  0  0  0  0  0  0  0  0  0  0
   -1.3821   -0.5866   -0.9232 C   0  0  0  0  0  0  0  0  0  0  0  0
   -0.4747    0.1916   -0.5505 C   0  0  0  0  0  0  0  0  0  0  0  0
   -0.6044    1.3891    0.1399 C   0  0  0  0  0  0  0  0  0  0  0  0
   -1.9637    1.6580    0.3968 C   0  0  0  0  0  0  0  0  0  0  0  0
   -2.9778    0.7741   -0.0278 C   0  0  0  0  0  0  0  0  0  0  0  0
   -3.5524   -1.0854   -1.0405 H   0  0  0  0  0  0  0  0  0  0  0  0
    0.1931    2.0563    0.4580 H   0  0  0  0  0  0  0  0  0  0  0  0
   -2.2526    2.5603    0.9316 H   0  0  0  0  0  0  0  0  0  0  0  0
   -4.3829    1.1232    0.2781 N   0  0  0  0  0  0  0  0  0  0  0  0
   -5.2547    0.3440   -0.0977 O   0  0  0  0  0  0  0  0  0  0  0  0
   -4.5983    2.1673    0.8879 O   0  0  0  0  0  0  0  0  0  0  0  0
    3.3346    2.1093    0.2462 N   0  0  0  0  0  0  0  0  0  0  0  0
    4.3778    1.8339    0.0118 N   0  0  0  0  0  0  0  0  0  0  0  0
  1  6  1  0  0  0  0
  2  1  2  0  0  0  0
  2  3  1  0  0  0  0
  3  4  2  0  0  0  0
  4  5  1  0  0  0  0
  4  8  1  0  0  0  0
  5  9  1  0  0  0  0
  6 10  1  0  0  0  0
  6  5  2  0  0  0  0
  7  1  1  0  0  0  0
 10 12  2  0  0  0  0
 11 10  2  0  0  0  0
 14 13  3  0  0  0  0
M  RAD  2   2   2   3   2
M  END
