Coordinates from ORCA-job 4-NO2-C6H3-N2-B3LYPG-aug-cc-pVDZ-scan-d09-49-n400
 OpenBabel11091809093D

 14 13  0  0  0  0  0  0  0  0999 V2000
   -2.3203   -0.2982   -0.6878 C   0  0  0  0  0  0  0  0  0  0  0  0
   -0.9401   -0.2121   -0.7442 C   0  0  0  0  0  0  0  0  0  0  0  0
   -0.2354    0.7098   -0.2740 C   0  0  0  0  0  0  0  0  0  0  0  0
   -0.6377    1.8495    0.4047 C   0  0  0  0  0  0  0  0  0  0  0  0
   -2.0417    1.8701    0.5236 C   0  0  0  0  0  0  0  0  0  0  0  0
   -2.8350    0.8308   -0.0066 C   0  0  0  0  0  0  0  0  0  0  0  0
   -2.9679   -1.0764   -1.0807 H   0  0  0  0  0  0  0  0  0  0  0  0
   -0.0011    2.6356    0.8029 H   0  0  0  0  0  0  0  0  0  0  0  0
   -2.5379    2.6950    1.0305 H   0  0  0  0  0  0  0  0  0  0  0  0
   -4.3031    0.9205    0.1566 N   0  0  0  0  0  0  0  0  0  0  0  0
   -4.9816    0.0091   -0.3098 O   0  0  0  0  0  0  0  0  0  0  0  0
   -4.7597    1.8964    0.7461 O   0  0  0  0  0  0  0  0  0  0  0  0
    2.7100    1.4212   -0.0949 N   0  0  0  0  0  0  0  0  0  0  0  0
    3.5710    0.8522   -0.4872 N   0  0  0  0  0  0  0  0  0  0  0  0
  1  6  1  0  0  0  0
  2  1  2  0  0  0  0
  2  3  1  0  0  0  0
  3  4  2  0  0  0  0
  4  5  1  0  0  0  0
  4  8  1  0  0  0  0
  5  9  1  0  0  0  0
  6 10  1  0  0  0  0
  6  5  2  0  0  0  0
  7  1  1  0  0  0  0
 10 12  2  0  0  0  0
 11 10  2  0  0  0  0
 14 13  3  0  0  0  0
M  RAD  2   2   2   3   2
M  END
