Coordinates from ORCA-job 4-NO2-C6H3-N2-B3LYPG-aug-cc-pVDZ-scan-d09-49-n400
 OpenBabel11091809093D

 14 13  0  0  0  0  0  0  0  0999 V2000
   -2.0750   -0.2199   -0.6621 C   0  0  0  0  0  0  0  0  0  0  0  0
   -0.6847   -0.0952   -0.6974 C   0  0  0  0  0  0  0  0  0  0  0  0
   -0.1181    0.9038   -0.1727 C   0  0  0  0  0  0  0  0  0  0  0  0
   -0.6007    2.0105    0.4934 C   0  0  0  0  0  0  0  0  0  0  0  0
   -2.0031    1.9478    0.5649 C   0  0  0  0  0  0  0  0  0  0  0  0
   -2.6987    0.8591   -0.0010 C   0  0  0  0  0  0  0  0  0  0  0  0
   -2.6621   -1.0340   -1.0801 H   0  0  0  0  0  0  0  0  0  0  0  0
   -0.0157    2.8268    0.9129 H   0  0  0  0  0  0  0  0  0  0  0  0
   -2.5687    2.7361    1.0563 H   0  0  0  0  0  0  0  0  0  0  0  0
   -4.1755    0.8513    0.1074 N   0  0  0  0  0  0  0  0  0  0  0  0
   -4.7760   -0.0988   -0.3868 O   0  0  0  0  0  0  0  0  0  0  0  0
   -4.7168    1.7921    0.6837 O   0  0  0  0  0  0  0  0  0  0  0  0
    1.9754    1.0971   -0.2232 N   0  0  0  0  0  0  0  0  0  0  0  0
    2.8393    0.5267   -0.6159 N   0  0  0  0  0  0  0  0  0  0  0  0
  1  6  1  0  0  0  0
  2  1  2  0  0  0  0
  2  3  1  0  0  0  0
  3  4  2  0  0  0  0
  4  5  1  0  0  0  0
  4  8  1  0  0  0  0
  5  9  1  0  0  0  0
  6 10  1  0  0  0  0
  6  5  2  0  0  0  0
  7  1  1  0  0  0  0
 10 12  2  0  0  0  0
 11 10  2  0  0  0  0
 14 13  3  0  0  0  0
M  RAD  2   2   2   3   2
M  END
