Coordinates from ORCA-job 4-NO2-C6H3-N2-B3LYPG-aug-cc-pVDZ-scan-d09-49-n400
 OpenBabel11091809093D

 14 13  0  0  0  0  0  0  0  0999 V2000
   -2.6221   -0.3961   -0.7199 C   0  0  0  0  0  0  0  0  0  0  0  0
   -1.2490   -0.4710   -0.8672 C   0  0  0  0  0  0  0  0  0  0  0  0
   -0.4067    0.3605   -0.4589 C   0  0  0  0  0  0  0  0  0  0  0  0
   -0.6267    1.5445    0.2308 C   0  0  0  0  0  0  0  0  0  0  0  0
   -2.0081    1.7302    0.4416 C   0  0  0  0  0  0  0  0  0  0  0  0
   -2.9525    0.7897   -0.0208 C   0  0  0  0  0  0  0  0  0  0  0  0
   -3.3815   -1.0944   -1.0589 H   0  0  0  0  0  0  0  0  0  0  0  0
    0.1187    2.2557    0.5782 H   0  0  0  0  0  0  0  0  0  0  0  0
   -2.3687    2.6105    0.9694 H   0  0  0  0  0  0  0  0  0  0  0  0
   -4.3855    1.0534    0.2382 N   0  0  0  0  0  0  0  0  0  0  0  0
   -5.1963    0.2263   -0.1703 O   0  0  0  0  0  0  0  0  0  0  0  0
   -4.6832    2.0796    0.8436 O   0  0  0  0  0  0  0  0  0  0  0  0
    3.2512    1.9103    0.1414 N   0  0  0  0  0  0  0  0  0  0  0  0
    4.2301    1.5040   -0.1678 N   0  0  0  0  0  0  0  0  0  0  0  0
  1  6  1  0  0  0  0
  2  1  2  0  0  0  0
  2  3  1  0  0  0  0
  3  4  2  0  0  0  0
  4  5  1  0  0  0  0
  4  8  1  0  0  0  0
  5  9  1  0  0  0  0
  6 10  1  0  0  0  0
  6  5  2  0  0  0  0
  7  1  1  0  0  0  0
 10 12  2  0  0  0  0
 11 10  2  0  0  0  0
 14 13  3  0  0  0  0
M  RAD  2   2   2   3   2
M  END
