Coordinates from ORCA-job 4-NO2-C6H3-N2-B3LYPG-aug-cc-pVDZ-scan-d09-49-n400
 OpenBabel11091809093D

 14 13  0  0  0  0  0  0  0  0999 V2000
   -2.4718   -0.3485   -0.7039 C   0  0  0  0  0  0  0  0  0  0  0  0
   -1.0922   -0.3361   -0.8026 C   0  0  0  0  0  0  0  0  0  0  0  0
   -0.3203    0.5451   -0.3608 C   0  0  0  0  0  0  0  0  0  0  0  0
   -0.6388    1.7080    0.3248 C   0  0  0  0  0  0  0  0  0  0  0  0
   -2.0357    1.8053    0.4873 C   0  0  0  0  0  0  0  0  0  0  0  0
   -2.9015    0.8098   -0.0124 C   0  0  0  0  0  0  0  0  0  0  0  0
   -3.1730   -1.0913   -1.0724 H   0  0  0  0  0  0  0  0  0  0  0  0
    0.0473    2.4626    0.7013 H   0  0  0  0  0  0  0  0  0  0  0  0
   -2.4697    2.6579    1.0053 H   0  0  0  0  0  0  0  0  0  0  0  0
   -4.3566    0.9804    0.1963 N   0  0  0  0  0  0  0  0  0  0  0  0
   -5.0985    0.1081   -0.2475 O   0  0  0  0  0  0  0  0  0  0  0  0
   -4.7404    1.9838    0.7915 O   0  0  0  0  0  0  0  0  0  0  0  0
    3.0402    1.6762    0.0242 N   0  0  0  0  0  0  0  0  0  0  0  0
    3.9304    1.1421   -0.3517 N   0  0  0  0  0  0  0  0  0  0  0  0
  1  6  1  0  0  0  0
  2  1  2  0  0  0  0
  2  3  1  0  0  0  0
  3  4  2  0  0  0  0
  4  5  1  0  0  0  0
  4  8  1  0  0  0  0
  5  9  1  0  0  0  0
  6 10  1  0  0  0  0
  6  5  2  0  0  0  0
  7  1  1  0  0  0  0
 10 12  2  0  0  0  0
 11 10  2  0  0  0  0
 14 13  3  0  0  0  0
M  RAD  2   2   2   3   2
M  END
