Coordinates from ORCA-job 4-NO2-C6H3-N2-B3LYPG-aug-cc-pVDZ-scan-d09-49-n400
 OpenBabel11091809093D

 14 13  0  0  0  0  0  0  0  0999 V2000
   -2.8390   -0.4571   -0.7383 C   0  0  0  0  0  0  0  0  0  0  0  0
   -1.4944   -0.6815   -0.9684 C   0  0  0  0  0  0  0  0  0  0  0  0
   -0.5387    0.0510   -0.6253 C   0  0  0  0  0  0  0  0  0  0  0  0
   -0.5864    1.2565    0.0630 C   0  0  0  0  0  0  0  0  0  0  0  0
   -1.9229    1.5940    0.3566 C   0  0  0  0  0  0  0  0  0  0  0  0
   -2.9925    0.7615   -0.0346 C   0  0  0  0  0  0  0  0  0  0  0  0
   -3.6897   -1.0697   -1.0214 H   0  0  0  0  0  0  0  0  0  0  0  0
    0.2507    1.8857    0.3564 H   0  0  0  0  0  0  0  0  0  0  0  0
   -2.1505    2.5116    0.8951 H   0  0  0  0  0  0  0  0  0  0  0  0
   -4.3686    1.1831    0.3098 N   0  0  0  0  0  0  0  0  0  0  0  0
   -5.2893    0.4469   -0.0348 O   0  0  0  0  0  0  0  0  0  0  0  0
   -4.5127    2.2376    0.9226 O   0  0  0  0  0  0  0  0  0  0  0  0
    3.3866    2.2687    0.3335 N   0  0  0  0  0  0  0  0  0  0  0  0
    4.4669    2.1151    0.1651 N   0  0  0  0  0  0  0  0  0  0  0  0
  1  6  1  0  0  0  0
  2  1  2  0  0  0  0
  2  3  1  0  0  0  0
  3  4  2  0  0  0  0
  4  8  1  0  0  0  0
  4  5  1  0  0  0  0
  5  9  1  0  0  0  0
  6 10  1  0  0  0  0
  6  5  2  0  0  0  0
  7  1  1  0  0  0  0
 10 12  2  0  0  0  0
 11 10  2  0  0  0  0
 14 13  3  0  0  0  0
M  RAD  2   2   2   3   2
M  END
