Coordinates from ORCA-job 4-NO2-C6H3-N2-B3LYPG-aug-cc-pVDZ-scan-d09-49-n400
 OpenBabel11091809093D

 14 13  0  0  0  0  0  0  0  0999 V2000
   -2.5812   -0.3832   -0.7158 C   0  0  0  0  0  0  0  0  0  0  0  0
   -1.2055   -0.4330   -0.8490 C   0  0  0  0  0  0  0  0  0  0  0  0
   -0.3830    0.4132   -0.4307 C   0  0  0  0  0  0  0  0  0  0  0  0
   -0.6315    1.5919    0.2582 C   0  0  0  0  0  0  0  0  0  0  0  0
   -2.0181    1.7521    0.4549 C   0  0  0  0  0  0  0  0  0  0  0  0
   -2.9404    0.7953   -0.0186 C   0  0  0  0  0  0  0  0  0  0  0  0
   -3.3242   -1.0947   -1.0635 H   0  0  0  0  0  0  0  0  0  0  0  0
    0.0974    2.3158    0.6140 H   0  0  0  0  0  0  0  0  0  0  0  0
   -2.4002    2.6250    0.9801 H   0  0  0  0  0  0  0  0  0  0  0  0
   -4.3806    1.0324    0.2259 N   0  0  0  0  0  0  0  0  0  0  0  0
   -5.1719    0.1912   -0.1921 O   0  0  0  0  0  0  0  0  0  0  0  0
   -4.7032    2.0522    0.8295 O   0  0  0  0  0  0  0  0  0  0  0  0
    3.2024    1.8435    0.1075 N   0  0  0  0  0  0  0  0  0  0  0  0
    4.1594    1.4017   -0.2210 N   0  0  0  0  0  0  0  0  0  0  0  0
  1  6  1  0  0  0  0
  2  1  2  0  0  0  0
  2  3  1  0  0  0  0
  3  4  2  0  0  0  0
  4  5  1  0  0  0  0
  4  8  1  0  0  0  0
  5  9  1  0  0  0  0
  6 10  1  0  0  0  0
  6  5  2  0  0  0  0
  7  1  1  0  0  0  0
 10 12  2  0  0  0  0
 11 10  2  0  0  0  0
 14 13  3  0  0  0  0
M  RAD  2   2   2   3   2
M  END
