Coordinates from ORCA-job 4-NO2-C6H3-N2-B3LYPG-aug-cc-pVDZ-scan-d09-49-n400
 OpenBabel11091809093D

 14 13  0  0  0  0  0  0  0  0999 V2000
   -2.0375   -0.2059   -0.6570 C   0  0  0  0  0  0  0  0  0  0  0  0
   -0.6396   -0.1058   -0.7067 C   0  0  0  0  0  0  0  0  0  0  0  0
   -0.0967    0.9144   -0.1682 C   0  0  0  0  0  0  0  0  0  0  0  0
   -0.5918    2.0175    0.4969 C   0  0  0  0  0  0  0  0  0  0  0  0
   -1.9907    1.9567    0.5691 C   0  0  0  0  0  0  0  0  0  0  0  0
   -2.6749    0.8634   -0.0004 C   0  0  0  0  0  0  0  0  0  0  0  0
   -2.6236   -1.0213   -1.0758 H   0  0  0  0  0  0  0  0  0  0  0  0
   -0.0050    2.8334    0.9160 H   0  0  0  0  0  0  0  0  0  0  0  0
   -2.5594    2.7428    1.0594 H   0  0  0  0  0  0  0  0  0  0  0  0
   -4.1531    0.8468    0.1030 N   0  0  0  0  0  0  0  0  0  0  0  0
   -4.7472   -0.1059   -0.3931 O   0  0  0  0  0  0  0  0  0  0  0  0
   -4.7008    1.7848    0.6781 O   0  0  0  0  0  0  0  0  0  0  0  0
    1.8195    1.0559   -0.2344 N   0  0  0  0  0  0  0  0  0  0  0  0
    2.7201    0.5266   -0.6076 N   0  0  0  0  0  0  0  0  0  0  0  0
  1  6  1  0  0  0  0
  2  1  2  0  0  0  0
  2  3  1  0  0  0  0
  3  4  2  0  0  0  0
  4  5  1  0  0  0  0
  4  8  1  0  0  0  0
  5  9  1  0  0  0  0
  6 10  1  0  0  0  0
  6  5  2  0  0  0  0
  7  1  1  0  0  0  0
 10 12  2  0  0  0  0
 11 10  2  0  0  0  0
 14 13  3  0  0  0  0
M  RAD  2   2   2   3   2
M  END
