Coordinates from ORCA-job 4-NO2-C6H3-N2-B3LYPG-aug-cc-pVDZ-scan-d09-49-n400
 OpenBabel11091809093D

 14 14  0  0  0  0  0  0  0  0999 V2000
   -1.9624   -0.2261   -0.5746 C   0  0  0  0  0  0  0  0  0  0  0  0
   -0.5698   -0.3289   -0.7958 C   0  0  0  0  0  0  0  0  0  0  0  0
    0.2204    0.8966   -0.1983 C   0  0  0  0  0  0  0  0  0  0  0  0
   -0.5423    1.9595    0.4793 C   0  0  0  0  0  0  0  0  0  0  0  0
   -1.9030    1.9607    0.5453 C   0  0  0  0  0  0  0  0  0  0  0  0
   -2.5988    0.8659   -0.0090 C   0  0  0  0  0  0  0  0  0  0  0  0
   -2.5790   -1.0584   -0.9198 H   0  0  0  0  0  0  0  0  0  0  0  0
    0.0577    2.7562    0.9234 H   0  0  0  0  0  0  0  0  0  0  0  0
   -2.4480    2.7674    1.0280 H   0  0  0  0  0  0  0  0  0  0  0  0
   -4.0853    0.8882    0.0629 N   0  0  0  0  0  0  0  0  0  0  0  0
   -4.6964    0.0619   -0.6024 O   0  0  0  0  0  0  0  0  0  0  0  0
   -4.5978    1.7293    0.7973 O   0  0  0  0  0  0  0  0  0  0  0  0
    1.1341    0.9161   -0.3043 N   0  0  0  0  0  0  0  0  0  0  0  0
    2.2899    0.9149   -0.4526 N   0  0  0  0  0  0  0  0  0  0  0  0
  1  6  1  0  0  0  0
  2  1  2  0  0  0  0
  2  3  1  0  0  0  0
  3  4  2  0  0  0  0
  4  5  1  0  0  0  0
  4  8  1  0  0  0  0
  5  9  1  0  0  0  0
  6 10  1  0  0  0  0
  6  5  2  0  0  0  0
  7  1  1  0  0  0  0
 10 12  2  0  0  0  0
 11 10  2  0  0  0  0
 13  3  1  0  0  0  0
 14 13  1  0  0  0  0
M  RAD  3   2   2  13   2  14   3
M  END
