Coordinates from ORCA-job 4-NO2-C6H3-N2-B3LYPG-aug-cc-pVDZ-scan-d09-49-n400
 OpenBabel11091809093D

 14 14  0  0  0  0  0  0  0  0999 V2000
   -1.9811   -0.2232   -0.5930 C   0  0  0  0  0  0  0  0  0  0  0  0
   -0.5634   -0.2898   -0.7599 C   0  0  0  0  0  0  0  0  0  0  0  0
    0.0575    0.8651   -0.1900 C   0  0  0  0  0  0  0  0  0  0  0  0
   -0.5584    1.9811    0.4710 C   0  0  0  0  0  0  0  0  0  0  0  0
   -1.9288    1.9713    0.5467 C   0  0  0  0  0  0  0  0  0  0  0  0
   -2.6131    0.8644   -0.0104 C   0  0  0  0  0  0  0  0  0  0  0  0
   -2.6025   -1.0477   -0.9445 H   0  0  0  0  0  0  0  0  0  0  0  0
    0.0322    2.7937    0.8955 H   0  0  0  0  0  0  0  0  0  0  0  0
   -2.4869    2.7725    1.0227 H   0  0  0  0  0  0  0  0  0  0  0  0
   -4.1005    0.8794    0.0785 N   0  0  0  0  0  0  0  0  0  0  0  0
   -4.7201    0.0792   -0.6115 O   0  0  0  0  0  0  0  0  0  0  0  0
   -4.6118    1.6890    0.8497 O   0  0  0  0  0  0  0  0  0  0  0  0
    1.3414    0.8874   -0.3236 N   0  0  0  0  0  0  0  0  0  0  0  0
    2.4552    0.8809   -0.4518 N   0  0  0  0  0  0  0  0  0  0  0  0
  1  6  1  0  0  0  0
  2  1  2  0  0  0  0
  2  3  1  0  0  0  0
  3  4  2  0  0  0  0
  4  5  1  0  0  0  0
  4  8  1  0  0  0  0
  5  9  1  0  0  0  0
  6 10  1  0  0  0  0
  6  5  2  0  0  0  0
  7  1  1  0  0  0  0
 10 12  2  0  0  0  0
 11 10  2  0  0  0  0
 13  3  1  0  0  0  0
 14 13  1  0  0  0  0
M  RAD  3   2   2  13   2  14   3
M  END
