Coordinates from ORCA-job 4-NO2-C6H3-N2-B3LYPG-aug-cc-pVDZ-scan-d09-49-n400
 OpenBabel11091809093D

 14 13  0  0  0  0  0  0  0  0999 V2000
   -2.6845   -0.4148   -0.7261 C   0  0  0  0  0  0  0  0  0  0  0  0
   -1.3171   -0.5293   -0.8953 C   0  0  0  0  0  0  0  0  0  0  0  0
   -0.4407    0.2753   -0.5050 C   0  0  0  0  0  0  0  0  0  0  0  0
   -0.6166    1.4670    0.1854 C   0  0  0  0  0  0  0  0  0  0  0  0
   -1.9878    1.6945    0.4190 C   0  0  0  0  0  0  0  0  0  0  0  0
   -2.9676    0.7818   -0.0249 C   0  0  0  0  0  0  0  0  0  0  0  0
   -3.4694   -1.0914   -1.0507 H   0  0  0  0  0  0  0  0  0  0  0  0
    0.1549    2.1570    0.5185 H   0  0  0  0  0  0  0  0  0  0  0  0
   -2.3128    2.5865    0.9504 H   0  0  0  0  0  0  0  0  0  0  0  0
   -4.3876    1.0885    0.2574 N   0  0  0  0  0  0  0  0  0  0  0  0
   -5.2292    0.2836   -0.1329 O   0  0  0  0  0  0  0  0  0  0  0  0
   -4.6442    2.1231    0.8673 O   0  0  0  0  0  0  0  0  0  0  0  0
    3.3050    2.0133    0.1953 N   0  0  0  0  0  0  0  0  0  0  0  0
    4.3173    1.6683   -0.0789 N   0  0  0  0  0  0  0  0  0  0  0  0
  1  6  1  0  0  0  0
  2  1  2  0  0  0  0
  2  3  1  0  0  0  0
  3  4  2  0  0  0  0
  4  5  1  0  0  0  0
  4  8  1  0  0  0  0
  5  9  1  0  0  0  0
  6 10  1  0  0  0  0
  6  5  2  0  0  0  0
  7  1  1  0  0  0  0
 10 12  2  0  0  0  0
 11 10  2  0  0  0  0
 14 13  3  0  0  0  0
M  RAD  2   2   2   3   2
M  END
