Coordinates from ORCA-job 4-NO2-C6H3-N2-B3LYPG-aug-cc-pVDZ-scan-d09-49-n400
 OpenBabel11091809093D

 14 13  0  0  0  0  0  0  0  0999 V2000
   -2.8005   -0.4475   -0.7356 C   0  0  0  0  0  0  0  0  0  0  0  0
   -1.4491   -0.6440   -0.9508 C   0  0  0  0  0  0  0  0  0  0  0  0
   -0.5124    0.1072   -0.5956 C   0  0  0  0  0  0  0  0  0  0  0  0
   -0.5934    1.3095    0.0938 C   0  0  0  0  0  0  0  0  0  0  0  0
   -1.9393    1.6200    0.3733 C   0  0  0  0  0  0  0  0  0  0  0  0
   -2.9870    0.7665   -0.0315 C   0  0  0  0  0  0  0  0  0  0  0  0
   -3.6352   -1.0768   -1.0293 H   0  0  0  0  0  0  0  0  0  0  0  0
    0.2287    1.9537    0.3970 H   0  0  0  0  0  0  0  0  0  0  0  0
   -2.1914    2.5318    0.9107 H   0  0  0  0  0  0  0  0  0  0  0  0
   -4.3753    1.1589    0.2978 N   0  0  0  0  0  0  0  0  0  0  0  0
   -5.2768    0.4058   -0.0608 O   0  0  0  0  0  0  0  0  0  0  0  0
   -4.5483    2.2103    0.9084 O   0  0  0  0  0  0  0  0  0  0  0  0
    3.3659    2.2051    0.2983 N   0  0  0  0  0  0  0  0  0  0  0  0
    4.4337    2.0030    0.1036 N   0  0  0  0  0  0  0  0  0  0  0  0
  1  6  1  0  0  0  0
  2  1  2  0  0  0  0
  2  3  1  0  0  0  0
  3  4  2  0  0  0  0
  4  5  1  0  0  0  0
  4  8  1  0  0  0  0
  5  9  1  0  0  0  0
  6 10  1  0  0  0  0
  6  5  2  0  0  0  0
  7  1  1  0  0  0  0
 10 12  2  0  0  0  0
 11 10  2  0  0  0  0
 14 13  3  0  0  0  0
M  RAD  2   2   2   3   2
M  END
