Coordinates from ORCA-job 4-NO2-C6H3-N2-B3LYPG-aug-cc-pVDZ-scan-d09-49-n400
 OpenBabel11091809093D

 14 13  0  0  0  0  0  0  0  0999 V2000
   -2.3672   -0.3133   -0.6930 C   0  0  0  0  0  0  0  0  0  0  0  0
   -0.9870   -0.2473   -0.7607 C   0  0  0  0  0  0  0  0  0  0  0  0
   -0.2610    0.6623   -0.2991 C   0  0  0  0  0  0  0  0  0  0  0  0
   -0.6408    1.8092    0.3818 C   0  0  0  0  0  0  0  0  0  0  0  0
   -2.0434    1.8519    0.5131 C   0  0  0  0  0  0  0  0  0  0  0  0
   -2.8577    0.8248   -0.0087 C   0  0  0  0  0  0  0  0  0  0  0  0
   -3.0303   -1.0817   -1.0792 H   0  0  0  0  0  0  0  0  0  0  0  0
    0.0104    2.5863    0.7739 H   0  0  0  0  0  0  0  0  0  0  0  0
   -2.5219    2.6852    1.0232 H   0  0  0  0  0  0  0  0  0  0  0  0
   -4.3228    0.9376    0.1671 N   0  0  0  0  0  0  0  0  0  0  0  0
   -5.0194    0.0356   -0.2907 O   0  0  0  0  0  0  0  0  0  0  0  0
   -4.7586    1.9204    0.7609 O   0  0  0  0  0  0  0  0  0  0  0  0
    2.8329    1.5050   -0.0563 N   0  0  0  0  0  0  0  0  0  0  0  0
    3.6863    0.9273   -0.4528 N   0  0  0  0  0  0  0  0  0  0  0  0
  1  6  1  0  0  0  0
  2  1  2  0  0  0  0
  2  3  1  0  0  0  0
  3  4  2  0  0  0  0
  4  5  1  0  0  0  0
  4  8  1  0  0  0  0
  5  9  1  0  0  0  0
  6 10  1  0  0  0  0
  6  5  2  0  0  0  0
  7  1  1  0  0  0  0
 10 12  2  0  0  0  0
 11 10  2  0  0  0  0
 14 13  3  0  0  0  0
M  RAD  2   2   2   3   2
M  END
