Coordinates from ORCA-job 4-NO2-C6H3-N2-B3LYPG-aug-cc-pVDZ-scan-d09-49-n400
 OpenBabel11091809093D

 14 13  0  0  0  0  0  0  0  0999 V2000
   -2.3808   -0.3177   -0.6943 C   0  0  0  0  0  0  0  0  0  0  0  0
   -1.0006   -0.2576   -0.7655 C   0  0  0  0  0  0  0  0  0  0  0  0
   -0.2680    0.6481   -0.3066 C   0  0  0  0  0  0  0  0  0  0  0  0
   -0.6416    1.7970    0.3750 C   0  0  0  0  0  0  0  0  0  0  0  0
   -2.0435    1.8464    0.5101 C   0  0  0  0  0  0  0  0  0  0  0  0
   -2.8641    0.8229   -0.0091 C   0  0  0  0  0  0  0  0  0  0  0  0
   -3.0483   -1.0832   -1.0785 H   0  0  0  0  0  0  0  0  0  0  0  0
    0.0145    2.5711    0.7650 H   0  0  0  0  0  0  0  0  0  0  0  0
   -2.5167    2.6821    1.0212 H   0  0  0  0  0  0  0  0  0  0  0  0
   -4.3281    0.9426    0.1707 N   0  0  0  0  0  0  0  0  0  0  0  0
   -5.0302    0.0440   -0.2856 O   0  0  0  0  0  0  0  0  0  0  0  0
   -4.7579    1.9279    0.7646 O   0  0  0  0  0  0  0  0  0  0  0  0
    2.8659    1.5291   -0.0454 N   0  0  0  0  0  0  0  0  0  0  0  0
    3.7188    0.9508   -0.4422 N   0  0  0  0  0  0  0  0  0  0  0  0
  1  6  1  0  0  0  0
  2  1  2  0  0  0  0
  2  3  1  0  0  0  0
  3  4  2  0  0  0  0
  4  5  1  0  0  0  0
  4  8  1  0  0  0  0
  5  9  1  0  0  0  0
  6 10  1  0  0  0  0
  6  5  2  0  0  0  0
  7  1  1  0  0  0  0
 10 12  2  0  0  0  0
 11 10  2  0  0  0  0
 14 13  3  0  0  0  0
M  RAD  2   2   2   3   2
M  END
