Coordinates from ORCA-job 4-NO2-C6H3-N2-B3LYPG-aug-cc-pVDZ-scan-d09-49-n400
 OpenBabel11091809093D

 14 13  0  0  0  0  0  0  0  0999 V2000
   -2.2270   -0.2685   -0.6782 C   0  0  0  0  0  0  0  0  0  0  0  0
   -0.8459   -0.1518   -0.7174 C   0  0  0  0  0  0  0  0  0  0  0  0
   -0.1918    0.7975   -0.2277 C   0  0  0  0  0  0  0  0  0  0  0  0
   -0.6277    1.9237    0.4460 C   0  0  0  0  0  0  0  0  0  0  0  0
   -2.0338    1.9036    0.5420 C   0  0  0  0  0  0  0  0  0  0  0  0
   -2.7867    0.8425   -0.0038 C   0  0  0  0  0  0  0  0  0  0  0  0
   -2.8469   -1.0634   -1.0828 H   0  0  0  0  0  0  0  0  0  0  0  0
   -0.0196    2.7263    0.8559 H   0  0  0  0  0  0  0  0  0  0  0  0
   -2.5621    2.7125    1.0423 H   0  0  0  0  0  0  0  0  0  0  0  0
   -4.2592    0.8901    0.1359 N   0  0  0  0  0  0  0  0  0  0  0  0
   -4.9040   -0.0392   -0.3427 O   0  0  0  0  0  0  0  0  0  0  0  0
   -4.7531    1.8511    0.7202 O   0  0  0  0  0  0  0  0  0  0  0  0
    2.4507    1.2660   -0.1635 N   0  0  0  0  0  0  0  0  0  0  0  0
    3.3266    0.7132   -0.5468 N   0  0  0  0  0  0  0  0  0  0  0  0
  1  6  1  0  0  0  0
  2  1  2  0  0  0  0
  2  3  1  0  0  0  0
  3  4  2  0  0  0  0
  4  5  1  0  0  0  0
  4  8  1  0  0  0  0
  5  9  1  0  0  0  0
  6 10  1  0  0  0  0
  6  5  2  0  0  0  0
  7  1  1  0  0  0  0
 10 12  2  0  0  0  0
 11 10  2  0  0  0  0
 14 13  3  0  0  0  0
M  RAD  2   2   2   3   2
M  END
