Coordinates from ORCA-job 4-NO2-C6H3-N2-B3LYPG-aug-cc-pVDZ-scan-d09-49-n400
 OpenBabel11091809093D

 14 13  0  0  0  0  0  0  0  0999 V2000
   -2.4025   -0.3250   -0.6967 C   0  0  0  0  0  0  0  0  0  0  0  0
   -1.0223   -0.2757   -0.7741 C   0  0  0  0  0  0  0  0  0  0  0  0
   -0.2802    0.6242   -0.3192 C   0  0  0  0  0  0  0  0  0  0  0  0
   -0.6417    1.7765    0.3634 C   0  0  0  0  0  0  0  0  0  0  0  0
   -2.0425    1.8371    0.5047 C   0  0  0  0  0  0  0  0  0  0  0  0
   -2.8736    0.8199   -0.0100 C   0  0  0  0  0  0  0  0  0  0  0  0
   -3.0779   -1.0854   -1.0774 H   0  0  0  0  0  0  0  0  0  0  0  0
    0.0220    2.5458    0.7500 H   0  0  0  0  0  0  0  0  0  0  0  0
   -2.5068    2.6768    1.0175 H   0  0  0  0  0  0  0  0  0  0  0  0
   -4.3358    0.9512    0.1762 N   0  0  0  0  0  0  0  0  0  0  0  0
   -5.0470    0.0580   -0.2764 O   0  0  0  0  0  0  0  0  0  0  0  0
   -4.7550    1.9404    0.7713 O   0  0  0  0  0  0  0  0  0  0  0  0
    2.9160    1.5701   -0.0260 N   0  0  0  0  0  0  0  0  0  0  0  0
    3.7667    0.9895   -0.4239 N   0  0  0  0  0  0  0  0  0  0  0  0
  1  6  1  0  0  0  0
  2  1  2  0  0  0  0
  2  3  1  0  0  0  0
  3  4  2  0  0  0  0
  4  5  1  0  0  0  0
  4  8  1  0  0  0  0
  5  9  1  0  0  0  0
  6 10  1  0  0  0  0
  6  5  2  0  0  0  0
  7  1  1  0  0  0  0
 10 12  2  0  0  0  0
 11 10  2  0  0  0  0
 14 13  3  0  0  0  0
M  RAD  2   2   2   3   2
M  END
