Coordinates from ORCA-job 4-NO2-C6H3-N2-B3LYPG-aug-cc-pVDZ-scan-d09-49-n400
 OpenBabel11091809093D

 14 14  0  0  0  0  0  0  0  0999 V2000
   -2.0297   -0.2021   -0.6566 C   0  0  0  0  0  0  0  0  0  0  0  0
   -0.6297   -0.1101   -0.7104 C   0  0  0  0  0  0  0  0  0  0  0  0
   -0.0915    0.9158   -0.1679 C   0  0  0  0  0  0  0  0  0  0  0  0
   -0.5905    2.0182    0.4968 C   0  0  0  0  0  0  0  0  0  0  0  0
   -1.9883    1.9592    0.5692 C   0  0  0  0  0  0  0  0  0  0  0  0
   -2.6700    0.8651   -0.0013 C   0  0  0  0  0  0  0  0  0  0  0  0
   -2.6163   -1.0172   -1.0756 H   0  0  0  0  0  0  0  0  0  0  0  0
   -0.0030    2.8338    0.9160 H   0  0  0  0  0  0  0  0  0  0  0  0
   -2.5575    2.7450    1.0592 H   0  0  0  0  0  0  0  0  0  0  0  0
   -4.1487    0.8473    0.1005 N   0  0  0  0  0  0  0  0  0  0  0  0
   -4.7413   -0.1085   -0.3914 O   0  0  0  0  0  0  0  0  0  0  0  0
   -4.6971    1.7822    0.6800 O   0  0  0  0  0  0  0  0  0  0  0  0
    1.7852    1.0450   -0.2370 N   0  0  0  0  0  0  0  0  0  0  0  0
    2.6978    0.5296   -0.6021 N   0  0  0  0  0  0  0  0  0  0  0  0
  1  6  1  0  0  0  0
  2  1  2  0  0  0  0
  2  3  1  0  0  0  0
  3  4  2  0  0  0  0
  4  5  1  0  0  0  0
  4  8  1  0  0  0  0
  5  9  1  0  0  0  0
  6 10  1  0  0  0  0
  6  5  2  0  0  0  0
  7  1  1  0  0  0  0
 10 12  2  0  0  0  0
 11 10  2  0  0  0  0
 13  3  1  0  0  0  0
 14 13  2  0  0  0  0
M  RAD  2   2   2  14   2
M  END
