Coordinates from ORCA-job 4-NO2-C6H3-N2-B3LYPG-aug-cc-pVDZ-scan-d09-49-n400
 OpenBabel11091809093D

 14 13  0  0  0  0  0  0  0  0999 V2000
   -2.9302   -0.4762   -0.7419 C   0  0  0  0  0  0  0  0  0  0  0  0
   -1.6114   -0.7847   -1.0182 C   0  0  0  0  0  0  0  0  0  0  0  0
   -0.5995   -0.1128   -0.7139 C   0  0  0  0  0  0  0  0  0  0  0  0
   -0.5488    1.0953   -0.0313 C   0  0  0  0  0  0  0  0  0  0  0  0
   -1.8497    1.5177    0.3083 C   0  0  0  0  0  0  0  0  0  0  0  0
   -2.9823    0.7522   -0.0400 C   0  0  0  0  0  0  0  0  0  0  0  0
   -3.8270   -1.0355   -0.9911 H   0  0  0  0  0  0  0  0  0  0  0  0
    0.3364    1.6714    0.2282 H   0  0  0  0  0  0  0  0  0  0  0  0
   -1.9996    2.4496    0.8493 H   0  0  0  0  0  0  0  0  0  0  0  0
   -4.3163    1.2597    0.3506 N   0  0  0  0  0  0  0  0  0  0  0  0
   -5.2930    0.5824    0.0406 O   0  0  0  0  0  0  0  0  0  0  0  0
   -4.3728    2.3245    0.9599 O   0  0  0  0  0  0  0  0  0  0  0  0
    3.3060    2.4161    0.4232 N   0  0  0  0  0  0  0  0  0  0  0  0
    4.4077    2.4438    0.3558 N   0  0  0  0  0  0  0  0  0  0  0  0
  1  6  1  0  0  0  0
  2  1  2  0  0  0  0
  2  3  1  0  0  0  0
  3  4  2  0  0  0  0
  4  8  1  0  0  0  0
  4  5  1  0  0  0  0
  5  9  1  0  0  0  0
  6  5  2  0  0  0  0
  6 10  1  0  0  0  0
  7  1  1  0  0  0  0
 10 12  2  0  0  0  0
 11 10  2  0  0  0  0
 14 13  3  0  0  0  0
M  RAD  2   2   2   3   2
M  END
