Coordinates from ORCA-job 4-NO2-C6H3-N2-B3LYPG-aug-cc-pVDZ-scan-d09-49-n400
 OpenBabel11091809093D

 14 13  0  0  0  0  0  0  0  0999 V2000
   -2.0924   -0.2250   -0.6642 C   0  0  0  0  0  0  0  0  0  0  0  0
   -0.7045   -0.0945   -0.6959 C   0  0  0  0  0  0  0  0  0  0  0  0
   -0.1275    0.8972   -0.1760 C   0  0  0  0  0  0  0  0  0  0  0  0
   -0.6060    2.0056    0.4908 C   0  0  0  0  0  0  0  0  0  0  0  0
   -2.0094    1.9442    0.5630 C   0  0  0  0  0  0  0  0  0  0  0  0
   -2.7101    0.8577   -0.0014 C   0  0  0  0  0  0  0  0  0  0  0  0
   -2.6810   -1.0380   -1.0815 H   0  0  0  0  0  0  0  0  0  0  0  0
   -0.0207    2.8214    0.9100 H   0  0  0  0  0  0  0  0  0  0  0  0
   -2.5727    2.7338    1.0550 H   0  0  0  0  0  0  0  0  0  0  0  0
   -4.1864    0.8543    0.1093 N   0  0  0  0  0  0  0  0  0  0  0  0
   -4.7901   -0.0953   -0.3824 O   0  0  0  0  0  0  0  0  0  0  0  0
   -4.7241    1.7956    0.6877 O   0  0  0  0  0  0  0  0  0  0  0  0
    2.0446    1.1131   -0.2193 N   0  0  0  0  0  0  0  0  0  0  0  0
    2.8996    0.5332   -0.6156 N   0  0  0  0  0  0  0  0  0  0  0  0
  1  6  1  0  0  0  0
  2  1  2  0  0  0  0
  2  3  1  0  0  0  0
  3  4  2  0  0  0  0
  4  5  1  0  0  0  0
  4  8  1  0  0  0  0
  5  9  1  0  0  0  0
  6 10  1  0  0  0  0
  6  5  2  0  0  0  0
  7  1  1  0  0  0  0
 10 12  2  0  0  0  0
 11 10  2  0  0  0  0
 14 13  3  0  0  0  0
M  RAD  2   2   2   3   2
M  END
