Coordinates from ORCA-job 4-NO2-C6H3-N2-B3LYPG-aug-cc-pVDZ-scan-d09-49-n400
 OpenBabel11091809093D

 14 13  0  0  0  0  0  0  0  0999 V2000
   -2.3100   -0.2949   -0.6867 C   0  0  0  0  0  0  0  0  0  0  0  0
   -0.9299   -0.2044   -0.7407 C   0  0  0  0  0  0  0  0  0  0  0  0
   -0.2300    0.7201   -0.2686 C   0  0  0  0  0  0  0  0  0  0  0  0
   -0.6369    1.8583    0.4096 C   0  0  0  0  0  0  0  0  0  0  0  0
   -2.0412    1.8740    0.5258 C   0  0  0  0  0  0  0  0  0  0  0  0
   -2.8299    0.8322   -0.0062 C   0  0  0  0  0  0  0  0  0  0  0  0
   -2.9542   -1.0752   -1.0811 H   0  0  0  0  0  0  0  0  0  0  0  0
   -0.0036    2.6463    0.8092 H   0  0  0  0  0  0  0  0  0  0  0  0
   -2.5412    2.6971    1.0319 H   0  0  0  0  0  0  0  0  0  0  0  0
   -4.2986    0.9169    0.1541 N   0  0  0  0  0  0  0  0  0  0  0  0
   -4.9731    0.0033   -0.3136 O   0  0  0  0  0  0  0  0  0  0  0  0
   -4.7596    1.8911    0.7432 O   0  0  0  0  0  0  0  0  0  0  0  0
    2.6819    1.4022   -0.1035 N   0  0  0  0  0  0  0  0  0  0  0  0
    3.5459    0.8364   -0.4942 N   0  0  0  0  0  0  0  0  0  0  0  0
  1  6  1  0  0  0  0
  2  1  2  0  0  0  0
  2  3  1  0  0  0  0
  3  4  2  0  0  0  0
  4  5  1  0  0  0  0
  4  8  1  0  0  0  0
  5  9  1  0  0  0  0
  6 10  1  0  0  0  0
  6  5  2  0  0  0  0
  7  1  1  0  0  0  0
 10 12  2  0  0  0  0
 11 10  2  0  0  0  0
 14 13  3  0  0  0  0
M  RAD  2   2   2   3   2
M  END
