Coordinates from ORCA-job 4-NO2-C6H3-N2-B3LYPG-aug-cc-pVDZ-scan-d09-49-n400
 OpenBabel11091809093D

 14 13  0  0  0  0  0  0  0  0999 V2000
   -2.2156   -0.2646   -0.6768 C   0  0  0  0  0  0  0  0  0  0  0  0
   -0.8344   -0.1445   -0.7142 C   0  0  0  0  0  0  0  0  0  0  0  0
   -0.1853    0.8075   -0.2225 C   0  0  0  0  0  0  0  0  0  0  0  0
   -0.6270    1.9321    0.4507 C   0  0  0  0  0  0  0  0  0  0  0  0
   -2.0329    1.9076    0.5444 C   0  0  0  0  0  0  0  0  0  0  0  0
   -2.7808    0.8440   -0.0033 C   0  0  0  0  0  0  0  0  0  0  0  0
   -2.8321   -1.0615   -1.0828 H   0  0  0  0  0  0  0  0  0  0  0  0
   -0.0211    2.7359    0.8615 H   0  0  0  0  0  0  0  0  0  0  0  0
   -2.5648    2.7146    1.0439 H   0  0  0  0  0  0  0  0  0  0  0  0
   -4.2538    0.8863    0.1335 N   0  0  0  0  0  0  0  0  0  0  0  0
   -4.8945   -0.0449   -0.3470 O   0  0  0  0  0  0  0  0  0  0  0  0
   -4.7522    1.8456    0.7168 O   0  0  0  0  0  0  0  0  0  0  0  0
    2.4210    1.2514   -0.1696 N   0  0  0  0  0  0  0  0  0  0  0  0
    3.2931    0.6940   -0.5551 N   0  0  0  0  0  0  0  0  0  0  0  0
  1  6  1  0  0  0  0
  2  1  2  0  0  0  0
  2  3  1  0  0  0  0
  3  4  2  0  0  0  0
  4  5  1  0  0  0  0
  4  8  1  0  0  0  0
  5  9  1  0  0  0  0
  6 10  1  0  0  0  0
  6  5  2  0  0  0  0
  7  1  1  0  0  0  0
 10 12  2  0  0  0  0
 11 10  2  0  0  0  0
 14 13  3  0  0  0  0
M  RAD  2   2   2   3   2
M  END
