Coordinates from ORCA-job 4-NO2-C6H3-N2-B3LYPG-aug-cc-pVDZ-scan-d09-49-n400
 OpenBabel11091809093D

 14 13  0  0  0  0  0  0  0  0999 V2000
   -2.1576   -0.2464   -0.6714 C   0  0  0  0  0  0  0  0  0  0  0  0
   -0.7743   -0.1162   -0.7030 C   0  0  0  0  0  0  0  0  0  0  0  0
   -0.1594    0.8538   -0.1984 C   0  0  0  0  0  0  0  0  0  0  0  0
   -0.6175    1.9707    0.4717 C   0  0  0  0  0  0  0  0  0  0  0  0
   -2.0232    1.9258    0.5535 C   0  0  0  0  0  0  0  0  0  0  0  0
   -2.7480    0.8506   -0.0025 C   0  0  0  0  0  0  0  0  0  0  0  0
   -2.7597   -1.0516   -1.0833 H   0  0  0  0  0  0  0  0  0  0  0  0
   -0.0241    2.7816    0.8875 H   0  0  0  0  0  0  0  0  0  0  0  0
   -2.5717    2.7238    1.0492 H   0  0  0  0  0  0  0  0  0  0  0  0
   -4.2228    0.8702    0.1212 N   0  0  0  0  0  0  0  0  0  0  0  0
   -4.8449   -0.0709   -0.3643 O   0  0  0  0  0  0  0  0  0  0  0  0
   -4.7410    1.8201    0.7029 O   0  0  0  0  0  0  0  0  0  0  0  0
    2.2521    1.1825   -0.1957 N   0  0  0  0  0  0  0  0  0  0  0  0
    3.1115    0.6094   -0.5882 N   0  0  0  0  0  0  0  0  0  0  0  0
  1  6  1  0  0  0  0
  2  1  2  0  0  0  0
  2  3  1  0  0  0  0
  3  4  2  0  0  0  0
  4  5  1  0  0  0  0
  4  8  1  0  0  0  0
  5  9  1  0  0  0  0
  6 10  1  0  0  0  0
  6  5  2  0  0  0  0
  7  1  1  0  0  0  0
 10 12  2  0  0  0  0
 11 10  2  0  0  0  0
 14 13  3  0  0  0  0
M  RAD  2   2   2   3   2
M  END
