Coordinates from ORCA-job 4-NO2-C6H3-N2-B3LYPG-aug-cc-pVDZ-scan-d09-49-n400
 OpenBabel11091809093D

 14 14  0  0  0  0  0  0  0  0999 V2000
   -2.0239   -0.2001   -0.6549 C   0  0  0  0  0  0  0  0  0  0  0  0
   -0.6224   -0.1141   -0.7132 C   0  0  0  0  0  0  0  0  0  0  0  0
   -0.0880    0.9165   -0.1680 C   0  0  0  0  0  0  0  0  0  0  0  0
   -0.5894    2.0184    0.4969 C   0  0  0  0  0  0  0  0  0  0  0  0
   -1.9863    1.9603    0.5707 C   0  0  0  0  0  0  0  0  0  0  0  0
   -2.6662    0.8653   -0.0000 C   0  0  0  0  0  0  0  0  0  0  0  0
   -2.6111   -1.0152   -1.0735 H   0  0  0  0  0  0  0  0  0  0  0  0
   -0.0012    2.8339    0.9157 H   0  0  0  0  0  0  0  0  0  0  0  0
   -2.5556    2.7458    1.0609 H   0  0  0  0  0  0  0  0  0  0  0  0
   -4.1452    0.8458    0.1020 N   0  0  0  0  0  0  0  0  0  0  0  0
   -4.7374   -0.1077   -0.3945 O   0  0  0  0  0  0  0  0  0  0  0  0
   -4.6946    1.7829    0.6771 O   0  0  0  0  0  0  0  0  0  0  0  0
    1.7590    1.0371   -0.2408 N   0  0  0  0  0  0  0  0  0  0  0  0
    2.6819    0.5344   -0.5988 N   0  0  0  0  0  0  0  0  0  0  0  0
  1  6  1  0  0  0  0
  2  1  2  0  0  0  0
  2  3  1  0  0  0  0
  3  4  2  0  0  0  0
  4  5  1  0  0  0  0
  4  8  1  0  0  0  0
  5  9  1  0  0  0  0
  6 10  1  0  0  0  0
  6  5  2  0  0  0  0
  7  1  1  0  0  0  0
 10 12  2  0  0  0  0
 11 10  2  0  0  0  0
 13  3  1  0  0  0  0
 14 13  2  0  0  0  0
M  RAD  2   2   2  14   2
M  END
