Coordinates from ORCA-job 4-NO2-C6H3-N2-B3LYPG-aug-cc-pVDZ-scan-d09-49-n400
 OpenBabel11091809093D

 14 13  0  0  0  0  0  0  0  0999 V2000
   -2.2472   -0.2747   -0.6804 C   0  0  0  0  0  0  0  0  0  0  0  0
   -0.8666   -0.1636   -0.7225 C   0  0  0  0  0  0  0  0  0  0  0  0
   -0.2005    0.7795   -0.2372 C   0  0  0  0  0  0  0  0  0  0  0  0
   -0.6303    1.9086    0.4375 C   0  0  0  0  0  0  0  0  0  0  0  0
   -2.0361    1.8969    0.5381 C   0  0  0  0  0  0  0  0  0  0  0  0
   -2.7976    0.8403   -0.0045 C   0  0  0  0  0  0  0  0  0  0  0  0
   -2.8727   -1.0662   -1.0827 H   0  0  0  0  0  0  0  0  0  0  0  0
   -0.0165    2.7079    0.8452 H   0  0  0  0  0  0  0  0  0  0  0  0
   -2.5578    2.7092    1.0397 H   0  0  0  0  0  0  0  0  0  0  0  0
   -4.2693    0.8967    0.1398 N   0  0  0  0  0  0  0  0  0  0  0  0
   -4.9211   -0.0297   -0.3351 O   0  0  0  0  0  0  0  0  0  0  0  0
   -4.7555    1.8602    0.7264 O   0  0  0  0  0  0  0  0  0  0  0  0
    2.5047    1.2920   -0.1524 N   0  0  0  0  0  0  0  0  0  0  0  0
    3.3862    0.7462   -0.5324 N   0  0  0  0  0  0  0  0  0  0  0  0
  1  6  1  0  0  0  0
  2  1  2  0  0  0  0
  2  3  1  0  0  0  0
  3  4  2  0  0  0  0
  4  5  1  0  0  0  0
  4  8  1  0  0  0  0
  5  9  1  0  0  0  0
  6 10  1  0  0  0  0
  6  5  2  0  0  0  0
  7  1  1  0  0  0  0
 10 12  2  0  0  0  0
 11 10  2  0  0  0  0
 14 13  3  0  0  0  0
M  RAD  2   2   2   3   2
M  END
