Coordinates from ORCA-job 4-NO2-C6H3-N2-B3LYPG-aug-cc-pVDZ-scan-d09-49-n400
 OpenBabel11091809093D

 14 13  0  0  0  0  0  0  0  0999 V2000
   -2.4752   -0.3491   -0.7046 C   0  0  0  0  0  0  0  0  0  0  0  0
   -1.0957   -0.3386   -0.8039 C   0  0  0  0  0  0  0  0  0  0  0  0
   -0.3218    0.5412   -0.3629 C   0  0  0  0  0  0  0  0  0  0  0  0
   -0.6391    1.7047    0.3226 C   0  0  0  0  0  0  0  0  0  0  0  0
   -2.0357    1.8043    0.4858 C   0  0  0  0  0  0  0  0  0  0  0  0
   -2.9030    0.8099   -0.0132 C   0  0  0  0  0  0  0  0  0  0  0  0
   -3.1776   -1.0910   -1.0727 H   0  0  0  0  0  0  0  0  0  0  0  0
    0.0491    2.4578    0.6981 H   0  0  0  0  0  0  0  0  0  0  0  0
   -2.4681    2.6577    1.0038 H   0  0  0  0  0  0  0  0  0  0  0  0
   -4.3578    0.9826    0.1959 N   0  0  0  0  0  0  0  0  0  0  0  0
   -5.1009    0.1091   -0.2439 O   0  0  0  0  0  0  0  0  0  0  0  0
   -4.7397    1.9847    0.7945 O   0  0  0  0  0  0  0  0  0  0  0  0
    3.0461    1.6806    0.0271 N   0  0  0  0  0  0  0  0  0  0  0  0
    3.9389    1.1496   -0.3470 N   0  0  0  0  0  0  0  0  0  0  0  0
  1  6  1  0  0  0  0
  2  1  2  0  0  0  0
  2  3  1  0  0  0  0
  3  4  2  0  0  0  0
  4  5  1  0  0  0  0
  4  8  1  0  0  0  0
  5  9  1  0  0  0  0
  6 10  1  0  0  0  0
  6  5  2  0  0  0  0
  7  1  1  0  0  0  0
 10 12  2  0  0  0  0
 11 10  2  0  0  0  0
 14 13  3  0  0  0  0
M  RAD  2   2   2   3   2
M  END
