Coordinates from ORCA-job 4-NO2-C6H3-N2-B3LYPG-aug-cc-pVDZ-scan-d09-49-n400
 OpenBabel11091809093D

 14 13  0  0  0  0  0  0  0  0999 V2000
   -2.7754   -0.4408   -0.7340 C   0  0  0  0  0  0  0  0  0  0  0  0
   -1.4200   -0.6193   -0.9389 C   0  0  0  0  0  0  0  0  0  0  0  0
   -0.4958    0.1437   -0.5761 C   0  0  0  0  0  0  0  0  0  0  0  0
   -0.5977    1.3447    0.1138 C   0  0  0  0  0  0  0  0  0  0  0  0
   -1.9499    1.6369    0.3829 C   0  0  0  0  0  0  0  0  0  0  0  0
   -2.9831    0.7700   -0.0306 C   0  0  0  0  0  0  0  0  0  0  0  0
   -3.5995   -1.0808   -1.0346 H   0  0  0  0  0  0  0  0  0  0  0  0
    0.2135    1.9993    0.4236 H   0  0  0  0  0  0  0  0  0  0  0  0
   -2.2183    2.5449    0.9190 H   0  0  0  0  0  0  0  0  0  0  0  0
   -4.3791    1.1440    0.2882 N   0  0  0  0  0  0  0  0  0  0  0  0
   -5.2676    0.3778   -0.0751 O   0  0  0  0  0  0  0  0  0  0  0  0
   -4.5703    2.1909    0.9010 O   0  0  0  0  0  0  0  0  0  0  0  0
    3.3524    2.1634    0.2761 N   0  0  0  0  0  0  0  0  0  0  0  0
    4.4103    1.9286    0.0642 N   0  0  0  0  0  0  0  0  0  0  0  0
  1  6  1  0  0  0  0
  2  1  2  0  0  0  0
  2  3  1  0  0  0  0
  3  4  2  0  0  0  0
  4  5  1  0  0  0  0
  4  8  1  0  0  0  0
  5  9  1  0  0  0  0
  6 10  1  0  0  0  0
  6  5  2  0  0  0  0
  7  1  1  0  0  0  0
 10 12  2  0  0  0  0
 11 10  2  0  0  0  0
 14 13  3  0  0  0  0
M  RAD  2   2   2   3   2
M  END
