Coordinates from ORCA-job 4-NO2-C6H3-N2-B3LYPG-aug-cc-pVDZ-scan-d09-49-n400
 OpenBabel11091809093D

 14 13  0  0  0  0  0  0  0  0999 V2000
   -2.1192   -0.2342   -0.6670 C   0  0  0  0  0  0  0  0  0  0  0  0
   -0.7341   -0.1000   -0.6968 C   0  0  0  0  0  0  0  0  0  0  0  0
   -0.1414    0.8821   -0.1837 C   0  0  0  0  0  0  0  0  0  0  0  0
   -0.6111    1.9937    0.4844 C   0  0  0  0  0  0  0  0  0  0  0  0
   -2.0160    1.9368    0.5596 C   0  0  0  0  0  0  0  0  0  0  0  0
   -2.7261    0.8545   -0.0014 C   0  0  0  0  0  0  0  0  0  0  0  0
   -2.7122   -1.0446   -1.0825 H   0  0  0  0  0  0  0  0  0  0  0  0
   -0.0247    2.8086    0.9029 H   0  0  0  0  0  0  0  0  0  0  0  0
   -2.5744    2.7293    1.0530 H   0  0  0  0  0  0  0  0  0  0  0  0
   -4.2018    0.8597    0.1145 N   0  0  0  0  0  0  0  0  0  0  0  0
   -4.8125   -0.0858   -0.3766 O   0  0  0  0  0  0  0  0  0  0  0  0
   -4.7324    1.8051    0.6926 O   0  0  0  0  0  0  0  0  0  0  0  0
    2.1373    1.1410   -0.2110 N   0  0  0  0  0  0  0  0  0  0  0  0
    2.9880    0.5573   -0.6087 N   0  0  0  0  0  0  0  0  0  0  0  0
  1  6  1  0  0  0  0
  2  1  2  0  0  0  0
  2  3  1  0  0  0  0
  3  4  2  0  0  0  0
  4  5  1  0  0  0  0
  4  8  1  0  0  0  0
  5  9  1  0  0  0  0
  6 10  1  0  0  0  0
  6  5  2  0  0  0  0
  7  1  1  0  0  0  0
 10 12  2  0  0  0  0
 11 10  2  0  0  0  0
 14 13  3  0  0  0  0
M  RAD  2   2   2   3   2
M  END
