Coordinates from ORCA-job 4-NO2-C6H3-N2-B3LYPG-aug-cc-pVDZ-scan-d09-49-n400
 OpenBabel11091809093D

 14 13  0  0  0  0  0  0  0  0999 V2000
   -2.7496   -0.4337   -0.7323 C   0  0  0  0  0  0  0  0  0  0  0  0
   -1.3903   -0.5937   -0.9265 C   0  0  0  0  0  0  0  0  0  0  0  0
   -0.4795    0.1813   -0.5559 C   0  0  0  0  0  0  0  0  0  0  0  0
   -0.6025    1.3804    0.1341 C   0  0  0  0  0  0  0  0  0  0  0  0
   -1.9607    1.6538    0.3925 C   0  0  0  0  0  0  0  0  0  0  0  0
   -2.9790    0.7736   -0.0297 C   0  0  0  0  0  0  0  0  0  0  0  0
   -3.5627   -1.0844   -1.0399 H   0  0  0  0  0  0  0  0  0  0  0  0
    0.1967    2.0461    0.4512 H   0  0  0  0  0  0  0  0  0  0  0  0
   -2.2456    2.5576    0.9271 H   0  0  0  0  0  0  0  0  0  0  0  0
   -4.3823    1.1287    0.2783 N   0  0  0  0  0  0  0  0  0  0  0  0
   -5.2574    0.3495   -0.0897 O   0  0  0  0  0  0  0  0  0  0  0  0
   -4.5921    2.1710    0.8931 O   0  0  0  0  0  0  0  0  0  0  0  0
    3.3391    2.1207    0.2533 N   0  0  0  0  0  0  0  0  0  0  0  0
    4.3853    1.8526    0.0237 N   0  0  0  0  0  0  0  0  0  0  0  0
  1  6  1  0  0  0  0
  2  1  2  0  0  0  0
  2  3  1  0  0  0  0
  3  4  2  0  0  0  0
  4  5  1  0  0  0  0
  4  8  1  0  0  0  0
  5  9  1  0  0  0  0
  6 10  1  0  0  0  0
  6  5  2  0  0  0  0
  7  1  1  0  0  0  0
 10 12  2  0  0  0  0
 11 10  2  0  0  0  0
 14 13  3  0  0  0  0
M  RAD  2   2   2   3   2
M  END
