Coordinates from ORCA-job 4-NO2-C6H3-N2-B3LYPG-aug-cc-pVDZ-scan-d09-49-n400
 OpenBabel11091809093D

 14 13  0  0  0  0  0  0  0  0999 V2000
   -2.7899   -0.4447   -0.7349 C   0  0  0  0  0  0  0  0  0  0  0  0
   -1.4368   -0.6336   -0.9458 C   0  0  0  0  0  0  0  0  0  0  0  0
   -0.5053    0.1225   -0.5875 C   0  0  0  0  0  0  0  0  0  0  0  0
   -0.5951    1.3241    0.1022 C   0  0  0  0  0  0  0  0  0  0  0  0
   -1.9437    1.6270    0.3776 C   0  0  0  0  0  0  0  0  0  0  0  0
   -2.9853    0.7678   -0.0308 C   0  0  0  0  0  0  0  0  0  0  0  0
   -3.6202   -1.0786   -1.0315 H   0  0  0  0  0  0  0  0  0  0  0  0
    0.2224    1.9726    0.4082 H   0  0  0  0  0  0  0  0  0  0  0  0
   -2.2025    2.5371    0.9146 H   0  0  0  0  0  0  0  0  0  0  0  0
   -4.3768    1.1524    0.2943 N   0  0  0  0  0  0  0  0  0  0  0  0
   -5.2730    0.3945   -0.0675 O   0  0  0  0  0  0  0  0  0  0  0  0
   -4.5575    2.2026    0.9048 O   0  0  0  0  0  0  0  0  0  0  0  0
    3.3597    2.1876    0.2888 N   0  0  0  0  0  0  0  0  0  0  0  0
    4.4236    1.9721    0.0869 N   0  0  0  0  0  0  0  0  0  0  0  0
  1  6  1  0  0  0  0
  2  1  2  0  0  0  0
  2  3  1  0  0  0  0
  3  4  2  0  0  0  0
  4  5  1  0  0  0  0
  4  8  1  0  0  0  0
  5  9  1  0  0  0  0
  6 10  1  0  0  0  0
  6  5  2  0  0  0  0
  7  1  1  0  0  0  0
 10 12  2  0  0  0  0
 11 10  2  0  0  0  0
 14 13  3  0  0  0  0
M  RAD  2   2   2   3   2
M  END
