Coordinates from ORCA-job 4-NO2-C6H3-N2-B3LYPG-aug-cc-pVDZ-scan-d09-49-n400
 OpenBabel11091809093D

 14 14  0  0  0  0  0  0  0  0999 V2000
   -1.9725   -0.2442   -0.5483 C   0  0  0  0  0  0  0  0  0  0  0  0
   -0.5680   -0.3090   -0.7606 C   0  0  0  0  0  0  0  0  0  0  0  0
    0.1230    0.8625   -0.1924 C   0  0  0  0  0  0  0  0  0  0  0  0
   -0.5464    1.9571    0.4923 C   0  0  0  0  0  0  0  0  0  0  0  0
   -1.9123    1.9647    0.5470 C   0  0  0  0  0  0  0  0  0  0  0  0
   -2.6056    0.8648   -0.0113 C   0  0  0  0  0  0  0  0  0  0  0  0
   -2.5891   -1.0881   -0.8613 H   0  0  0  0  0  0  0  0  0  0  0  0
    0.0477    2.7497    0.9495 H   0  0  0  0  0  0  0  0  0  0  0  0
   -2.4641    2.7705    1.0231 H   0  0  0  0  0  0  0  0  0  0  0  0
   -4.0908    0.8995    0.0437 N   0  0  0  0  0  0  0  0  0  0  0  0
   -4.7032    0.1223   -0.6785 O   0  0  0  0  0  0  0  0  0  0  0  0
   -4.6064    1.6956    0.8260 O   0  0  0  0  0  0  0  0  0  0  0  0
    1.2423    0.9138   -0.3431 N   0  0  0  0  0  0  0  0  0  0  0  0
    2.3647    0.9443   -0.5065 N   0  0  0  0  0  0  0  0  0  0  0  0
  1  6  1  0  0  0  0
  2  1  2  0  0  0  0
  2  3  1  0  0  0  0
  3  4  2  0  0  0  0
  4  5  1  0  0  0  0
  4  8  1  0  0  0  0
  5  9  1  0  0  0  0
  6 10  1  0  0  0  0
  6  5  2  0  0  0  0
  7  1  1  0  0  0  0
 10 12  2  0  0  0  0
 11 10  2  0  0  0  0
 13  3  1  0  0  0  0
 14 13  1  0  0  0  0
M  RAD  3   2   2  13   2  14   3
M  END
