Coordinates from ORCA-job 4-NO2-C6H3-N2-B3LYPG-aug-cc-pVDZ-scan-d09-49-n400
 OpenBabel11091809093D

 14 13  0  0  0  0  0  0  0  0999 V2000
   -2.0641   -0.2160   -0.6605 C   0  0  0  0  0  0  0  0  0  0  0  0
   -0.6718   -0.0970   -0.6992 C   0  0  0  0  0  0  0  0  0  0  0  0
   -0.1125    0.9076   -0.1708 C   0  0  0  0  0  0  0  0  0  0  0  0
   -0.5981    2.0132    0.4949 C   0  0  0  0  0  0  0  0  0  0  0  0
   -1.9997    1.9504    0.5663 C   0  0  0  0  0  0  0  0  0  0  0  0
   -2.6919    0.8602   -0.0007 C   0  0  0  0  0  0  0  0  0  0  0  0
   -2.6504   -1.0307   -1.0789 H   0  0  0  0  0  0  0  0  0  0  0  0
   -0.0129    2.8295    0.9143 H   0  0  0  0  0  0  0  0  0  0  0  0
   -2.5664    2.7379    1.0573 H   0  0  0  0  0  0  0  0  0  0  0  0
   -4.1690    0.8497    0.1062 N   0  0  0  0  0  0  0  0  0  0  0  0
   -4.7675   -0.1011   -0.3892 O   0  0  0  0  0  0  0  0  0  0  0  0
   -4.7124    1.7898    0.6815 O   0  0  0  0  0  0  0  0  0  0  0  0
    1.9319    1.0856   -0.2264 N   0  0  0  0  0  0  0  0  0  0  0  0
    2.8041    0.5243   -0.6153 N   0  0  0  0  0  0  0  0  0  0  0  0
  1  6  1  0  0  0  0
  2  1  2  0  0  0  0
  2  3  1  0  0  0  0
  3  4  2  0  0  0  0
  4  5  1  0  0  0  0
  4  8  1  0  0  0  0
  5  9  1  0  0  0  0
  6 10  1  0  0  0  0
  6  5  2  0  0  0  0
  7  1  1  0  0  0  0
 10 12  2  0  0  0  0
 11 10  2  0  0  0  0
 14 13  3  0  0  0  0
M  RAD  2   2   2   3   2
M  END
