Coordinates from ORCA-job 4-NO2-C6H3-N2-B3LYPG-aug-cc-pVDZ-scan-d09-49-n400
 OpenBabel11091809093D

 14 13  0  0  0  0  0  0  0  0999 V2000
   -2.2714   -0.2829   -0.6819 C   0  0  0  0  0  0  0  0  0  0  0  0
   -0.8909   -0.1793   -0.7291 C   0  0  0  0  0  0  0  0  0  0  0  0
   -0.2121    0.7569   -0.2489 C   0  0  0  0  0  0  0  0  0  0  0  0
   -0.6333    1.8894    0.4274 C   0  0  0  0  0  0  0  0  0  0  0  0
   -2.0385    1.8879    0.5345 C   0  0  0  0  0  0  0  0  0  0  0  0
   -2.8102    0.8366   -0.0039 C   0  0  0  0  0  0  0  0  0  0  0  0
   -2.9041   -1.0703   -1.0809 H   0  0  0  0  0  0  0  0  0  0  0  0
   -0.0113    2.6842    0.8315 H   0  0  0  0  0  0  0  0  0  0  0  0
   -2.5520    2.7042    1.0381 H   0  0  0  0  0  0  0  0  0  0  0  0
   -4.2808    0.9033    0.1472 N   0  0  0  0  0  0  0  0  0  0  0  0
   -4.9416   -0.0155   -0.3300 O   0  0  0  0  0  0  0  0  0  0  0  0
   -4.7579    1.8736    0.7299 O   0  0  0  0  0  0  0  0  0  0  0  0
    2.5719    1.3313   -0.1365 N   0  0  0  0  0  0  0  0  0  0  0  0
    3.4518    0.7838   -0.5182 N   0  0  0  0  0  0  0  0  0  0  0  0
  1  6  1  0  0  0  0
  2  1  2  0  0  0  0
  2  3  1  0  0  0  0
  3  4  2  0  0  0  0
  4  5  1  0  0  0  0
  4  8  1  0  0  0  0
  5  9  1  0  0  0  0
  6 10  1  0  0  0  0
  6  5  2  0  0  0  0
  7  1  1  0  0  0  0
 10 12  2  0  0  0  0
 11 10  2  0  0  0  0
 14 13  3  0  0  0  0
M  RAD  2   2   2   3   2
M  END
