Coordinates from ORCA-job 4-NO2-C6H3-N2-B3LYPG-aug-cc-pVDZ-scan-d09-49-n400
 OpenBabel11091809093D

 14 13  0  0  0  0  0  0  0  0999 V2000
   -2.9756   -0.4835   -0.7428 C   0  0  0  0  0  0  0  0  0  0  0  0
   -1.6720   -0.8338   -1.0412 C   0  0  0  0  0  0  0  0  0  0  0  0
   -0.6348   -0.1929   -0.7564 C   0  0  0  0  0  0  0  0  0  0  0  0
   -0.5340    1.0148   -0.0783 C   0  0  0  0  0  0  0  0  0  0  0  0
   -1.8152    1.4780    0.2825 C   0  0  0  0  0  0  0  0  0  0  0  0
   -2.9770    0.7475   -0.0437 C   0  0  0  0  0  0  0  0  0  0  0  0
   -3.8936   -1.0152   -0.9747 H   0  0  0  0  0  0  0  0  0  0  0  0
    0.3721    1.5651    0.1650 H   0  0  0  0  0  0  0  0  0  0  0  0
   -1.9265    2.4155    0.8233 H   0  0  0  0  0  0  0  0  0  0  0  0
   -4.2875    1.2974    0.3685 N   0  0  0  0  0  0  0  0  0  0  0  0
   -5.2900    0.6490    0.0801 O   0  0  0  0  0  0  0  0  0  0  0  0
   -4.2999    2.3637    0.9778 O   0  0  0  0  0  0  0  0  0  0  0  0
    3.2779    2.4907    0.4682 N   0  0  0  0  0  0  0  0  0  0  0  0
    4.3757    2.6071    0.4513 N   0  0  0  0  0  0  0  0  0  0  0  0
  1  6  2  0  0  0  0
  2  3  2  0  0  0  0
  2  1  1  0  0  0  0
  3  4  1  0  0  0  0
  4  8  1  0  0  0  0
  4  5  2  0  0  0  0
  5  9  1  0  0  0  0
  6  5  1  0  0  0  0
  6 10  1  0  0  0  0
  7  1  1  0  0  0  0
 10 12  2  0  0  0  0
 11 10  2  0  0  0  0
 14 13  3  0  0  0  0
M  RAD  2   2   2   3   2
M  END
