Coordinates from ORCA-job 4-NO2-C6H3-N2-B3LYPG-aug-cc-pVDZ-scan-d09-49-n400
 OpenBabel11091809093D

 14 13  0  0  0  0  0  0  0  0999 V2000
   -2.2298   -0.2698   -0.6781 C   0  0  0  0  0  0  0  0  0  0  0  0
   -0.8487   -0.1540   -0.7182 C   0  0  0  0  0  0  0  0  0  0  0  0
   -0.1935    0.7949   -0.2290 C   0  0  0  0  0  0  0  0  0  0  0  0
   -0.6278    1.9215    0.4450 C   0  0  0  0  0  0  0  0  0  0  0  0
   -2.0340    1.9023    0.5419 C   0  0  0  0  0  0  0  0  0  0  0  0
   -2.7881    0.8418   -0.0032 C   0  0  0  0  0  0  0  0  0  0  0  0
   -2.8505   -1.0642   -1.0822 H   0  0  0  0  0  0  0  0  0  0  0  0
   -0.0192    2.7239    0.8545 H   0  0  0  0  0  0  0  0  0  0  0  0
   -2.5614    2.7115    1.0425 H   0  0  0  0  0  0  0  0  0  0  0  0
   -4.2605    0.8906    0.1375 N   0  0  0  0  0  0  0  0  0  0  0  0
   -4.9065   -0.0368   -0.3432 O   0  0  0  0  0  0  0  0  0  0  0  0
   -4.7534    1.8534    0.7196 O   0  0  0  0  0  0  0  0  0  0  0  0
    2.4579    1.2699   -0.1624 N   0  0  0  0  0  0  0  0  0  0  0  0
    3.3349    0.7185   -0.5452 N   0  0  0  0  0  0  0  0  0  0  0  0
  1  6  1  0  0  0  0
  2  1  2  0  0  0  0
  2  3  1  0  0  0  0
  3  4  2  0  0  0  0
  4  5  1  0  0  0  0
  4  8  1  0  0  0  0
  5  9  1  0  0  0  0
  6 10  1  0  0  0  0
  6  5  2  0  0  0  0
  7  1  1  0  0  0  0
 10 12  2  0  0  0  0
 11 10  2  0  0  0  0
 14 13  3  0  0  0  0
M  RAD  2   2   2   3   2
M  END
