Coordinates from ORCA-job 4-NO2-C6H3-N2-B3LYPG-aug-cc-pVDZ-scan-d09-49-n400
 OpenBabel11091809093D

 14 13  0  0  0  0  0  0  0  0999 V2000
   -2.2414   -0.2731   -0.6792 C   0  0  0  0  0  0  0  0  0  0  0  0
   -0.8606   -0.1602   -0.7208 C   0  0  0  0  0  0  0  0  0  0  0  0
   -0.1979    0.7847   -0.2343 C   0  0  0  0  0  0  0  0  0  0  0  0
   -0.6297    1.9129    0.4402 C   0  0  0  0  0  0  0  0  0  0  0  0
   -2.0356    1.8986    0.5399 C   0  0  0  0  0  0  0  0  0  0  0  0
   -2.7945    0.8406   -0.0035 C   0  0  0  0  0  0  0  0  0  0  0  0
   -2.8652   -1.0658   -1.0820 H   0  0  0  0  0  0  0  0  0  0  0  0
   -0.0175    2.7132    0.8484 H   0  0  0  0  0  0  0  0  0  0  0  0
   -2.5592    2.7098    1.0413 H   0  0  0  0  0  0  0  0  0  0  0  0
   -4.2664    0.8941    0.1398 N   0  0  0  0  0  0  0  0  0  0  0  0
   -4.9163   -0.0315   -0.3392 O   0  0  0  0  0  0  0  0  0  0  0  0
   -4.7551    1.8585    0.7228 O   0  0  0  0  0  0  0  0  0  0  0  0
    2.4895    1.2847   -0.1563 N   0  0  0  0  0  0  0  0  0  0  0  0
    3.3693    0.7369   -0.5375 N   0  0  0  0  0  0  0  0  0  0  0  0
  1  6  1  0  0  0  0
  2  1  2  0  0  0  0
  2  3  1  0  0  0  0
  3  4  2  0  0  0  0
  4  5  1  0  0  0  0
  4  8  1  0  0  0  0
  5  9  1  0  0  0  0
  6 10  1  0  0  0  0
  6  5  2  0  0  0  0
  7  1  1  0  0  0  0
 10 12  2  0  0  0  0
 11 10  2  0  0  0  0
 14 13  3  0  0  0  0
M  RAD  2   2   2   3   2
M  END
