Coordinates from ORCA-job 4-NO2-C6H3-N2-B3LYPG-aug-cc-pVDZ-scan-d09-49-n400
 OpenBabel11091809093D

 14 13  0  0  0  0  0  0  0  0999 V2000
   -2.2589   -0.2785   -0.6815 C   0  0  0  0  0  0  0  0  0  0  0  0
   -0.8784   -0.1709   -0.7257 C   0  0  0  0  0  0  0  0  0  0  0  0
   -0.2060    0.7687   -0.2429 C   0  0  0  0  0  0  0  0  0  0  0  0
   -0.6314    1.8994    0.4325 C   0  0  0  0  0  0  0  0  0  0  0  0
   -2.0371    1.8927    0.5360 C   0  0  0  0  0  0  0  0  0  0  0  0
   -2.8036    0.8388   -0.0047 C   0  0  0  0  0  0  0  0  0  0  0  0
   -2.8878   -1.0680   -1.0824 H   0  0  0  0  0  0  0  0  0  0  0  0
   -0.0144    2.6970    0.8388 H   0  0  0  0  0  0  0  0  0  0  0  0
   -2.5548    2.7070    1.0384 H   0  0  0  0  0  0  0  0  0  0  0  0
   -4.2749    0.9004    0.1426 N   0  0  0  0  0  0  0  0  0  0  0  0
   -4.9308   -0.0234   -0.3313 O   0  0  0  0  0  0  0  0  0  0  0  0
   -4.7564    1.8661    0.7293 O   0  0  0  0  0  0  0  0  0  0  0  0
    2.5346    1.3078   -0.1458 N   0  0  0  0  0  0  0  0  0  0  0  0
    3.4195    0.7662   -0.5239 N   0  0  0  0  0  0  0  0  0  0  0  0
  1  6  1  0  0  0  0
  2  1  2  0  0  0  0
  2  3  1  0  0  0  0
  3  4  2  0  0  0  0
  4  5  1  0  0  0  0
  4  8  1  0  0  0  0
  5  9  1  0  0  0  0
  6 10  1  0  0  0  0
  6  5  2  0  0  0  0
  7  1  1  0  0  0  0
 10 12  2  0  0  0  0
 11 10  2  0  0  0  0
 14 13  3  0  0  0  0
M  RAD  2   2   2   3   2
M  END
