Coordinates from ORCA-job 4-NO2-C6H3-N2-B3LYPG-aug-cc-pVDZ-scan-d09-49-n400
 OpenBabel11091809093D

 14 13  0  0  0  0  0  0  0  0999 V2000
   -2.3385   -0.3040   -0.6897 C   0  0  0  0  0  0  0  0  0  0  0  0
   -0.9584   -0.2251   -0.7502 C   0  0  0  0  0  0  0  0  0  0  0  0
   -0.2448    0.6917   -0.2836 C   0  0  0  0  0  0  0  0  0  0  0  0
   -0.6393    1.8342    0.3960 C   0  0  0  0  0  0  0  0  0  0  0  0
   -2.0427    1.8632    0.5197 C   0  0  0  0  0  0  0  0  0  0  0  0
   -2.8441    0.8285   -0.0073 C   0  0  0  0  0  0  0  0  0  0  0  0
   -2.9919   -1.0786   -1.0801 H   0  0  0  0  0  0  0  0  0  0  0  0
    0.0030    2.6168    0.7919 H   0  0  0  0  0  0  0  0  0  0  0  0
   -2.5322    2.6913    1.0278 H   0  0  0  0  0  0  0  0  0  0  0  0
   -4.3111    0.9269    0.1606 N   0  0  0  0  0  0  0  0  0  0  0  0
   -4.9964    0.0191   -0.3026 O   0  0  0  0  0  0  0  0  0  0  0  0
   -4.7599    1.9055    0.7517 O   0  0  0  0  0  0  0  0  0  0  0  0
    2.7590    1.4533   -0.0803 N   0  0  0  0  0  0  0  0  0  0  0  0
    3.6168    0.8805   -0.4744 N   0  0  0  0  0  0  0  0  0  0  0  0
  1  6  1  0  0  0  0
  2  1  2  0  0  0  0
  2  3  1  0  0  0  0
  3  4  2  0  0  0  0
  4  5  1  0  0  0  0
  4  8  1  0  0  0  0
  5  9  1  0  0  0  0
  6 10  1  0  0  0  0
  6  5  2  0  0  0  0
  7  1  1  0  0  0  0
 10 12  2  0  0  0  0
 11 10  2  0  0  0  0
 14 13  3  0  0  0  0
M  RAD  2   2   2   3   2
M  END
