Coordinates from ORCA-job 4-NO2-C6H3-N2-B3LYPG-aug-cc-pVDZ-scan-d09-49-n400
 OpenBabel11091809093D

 14 13  0  0  0  0  0  0  0  0999 V2000
   -2.1039   -0.2288   -0.6650 C   0  0  0  0  0  0  0  0  0  0  0  0
   -0.7175   -0.0952   -0.6952 C   0  0  0  0  0  0  0  0  0  0  0  0
   -0.1329    0.8918   -0.1788 C   0  0  0  0  0  0  0  0  0  0  0  0
   -0.6090    2.0013    0.4887 C   0  0  0  0  0  0  0  0  0  0  0  0
   -2.0130    1.9413    0.5620 C   0  0  0  0  0  0  0  0  0  0  0  0
   -2.7173    0.8563   -0.0010 C   0  0  0  0  0  0  0  0  0  0  0  0
   -2.6939   -1.0410   -1.0817 H   0  0  0  0  0  0  0  0  0  0  0  0
   -0.0232    2.8168    0.9075 H   0  0  0  0  0  0  0  0  0  0  0  0
   -2.5745    2.7319    1.0546 H   0  0  0  0  0  0  0  0  0  0  0  0
   -4.1934    0.8559    0.1117 N   0  0  0  0  0  0  0  0  0  0  0  0
   -4.7997   -0.0916   -0.3810 O   0  0  0  0  0  0  0  0  0  0  0  0
   -4.7286    1.7994    0.6888 O   0  0  0  0  0  0  0  0  0  0  0  0
    2.0879    1.1249   -0.2165 N   0  0  0  0  0  0  0  0  0  0  0  0
    2.9384    0.5403   -0.6147 N   0  0  0  0  0  0  0  0  0  0  0  0
  1  6  1  0  0  0  0
  2  1  2  0  0  0  0
  2  3  1  0  0  0  0
  3  4  2  0  0  0  0
  4  5  1  0  0  0  0
  4  8  1  0  0  0  0
  5  9  1  0  0  0  0
  6 10  1  0  0  0  0
  6  5  2  0  0  0  0
  7  1  1  0  0  0  0
 10 12  2  0  0  0  0
 11 10  2  0  0  0  0
 14 13  3  0  0  0  0
M  RAD  2   2   2   3   2
M  END
