Coordinates from ORCA-job 4-NO2-C6H3-N2-B3LYPG-aug-cc-pVDZ-scan-d09-49-n400
 OpenBabel11091809093D

 14 13  0  0  0  0  0  0  0  0999 V2000
   -2.6188   -0.3949   -0.7196 C   0  0  0  0  0  0  0  0  0  0  0  0
   -1.2455   -0.4678   -0.8657 C   0  0  0  0  0  0  0  0  0  0  0  0
   -0.4045    0.3648   -0.4566 C   0  0  0  0  0  0  0  0  0  0  0  0
   -0.6274    1.5482    0.2329 C   0  0  0  0  0  0  0  0  0  0  0  0
   -2.0091    1.7321    0.4427 C   0  0  0  0  0  0  0  0  0  0  0  0
   -2.9516    0.7903   -0.0207 C   0  0  0  0  0  0  0  0  0  0  0  0
   -3.3768   -1.0943   -1.0593 H   0  0  0  0  0  0  0  0  0  0  0  0
    0.1171    2.2601    0.5807 H   0  0  0  0  0  0  0  0  0  0  0  0
   -2.3714    2.6120    0.9703 H   0  0  0  0  0  0  0  0  0  0  0  0
   -4.3852    1.0517    0.2371 N   0  0  0  0  0  0  0  0  0  0  0  0
   -5.1943    0.2232   -0.1719 O   0  0  0  0  0  0  0  0  0  0  0  0
   -4.6849    2.0773    0.8427 O   0  0  0  0  0  0  0  0  0  0  0  0
    3.2473    1.9048    0.1387 N   0  0  0  0  0  0  0  0  0  0  0  0
    4.2247    1.4959   -0.1719 N   0  0  0  0  0  0  0  0  0  0  0  0
  1  6  1  0  0  0  0
  2  1  2  0  0  0  0
  2  3  1  0  0  0  0
  3  4  2  0  0  0  0
  4  5  1  0  0  0  0
  4  8  1  0  0  0  0
  5  9  1  0  0  0  0
  6 10  1  0  0  0  0
  6  5  2  0  0  0  0
  7  1  1  0  0  0  0
 10 12  2  0  0  0  0
 11 10  2  0  0  0  0
 14 13  3  0  0  0  0
M  RAD  2   2   2   3   2
M  END
