Coordinates from ORCA-job 4-NO2-C6H3-N2-B3LYPG-aug-cc-pVDZ-scan-d09-49-n400
 OpenBabel11091809093D

 14 14  0  0  0  0  0  0  0  0999 V2000
   -2.0334   -0.2042   -0.6561 C   0  0  0  0  0  0  0  0  0  0  0  0
   -0.6345   -0.1081   -0.7084 C   0  0  0  0  0  0  0  0  0  0  0  0
   -0.0940    0.9152   -0.1680 C   0  0  0  0  0  0  0  0  0  0  0  0
   -0.5913    2.0178    0.4970 C   0  0  0  0  0  0  0  0  0  0  0  0
   -1.9896    1.9578    0.5697 C   0  0  0  0  0  0  0  0  0  0  0  0
   -2.6724    0.8639   -0.0000 C   0  0  0  0  0  0  0  0  0  0  0  0
   -2.6197   -1.0195   -1.0749 H   0  0  0  0  0  0  0  0  0  0  0  0
   -0.0042    2.8336    0.9160 H   0  0  0  0  0  0  0  0  0  0  0  0
   -2.5585    2.7436    1.0600 H   0  0  0  0  0  0  0  0  0  0  0  0
   -4.1508    0.8463    0.1030 N   0  0  0  0  0  0  0  0  0  0  0  0
   -4.7443   -0.1063   -0.3941 O   0  0  0  0  0  0  0  0  0  0  0  0
   -4.6992    1.7845    0.6773 O   0  0  0  0  0  0  0  0  0  0  0  0
    1.8024    1.0505   -0.2364 N   0  0  0  0  0  0  0  0  0  0  0  0
    2.7090    0.5283   -0.6058 N   0  0  0  0  0  0  0  0  0  0  0  0
  1  6  1  0  0  0  0
  2  1  2  0  0  0  0
  2  3  1  0  0  0  0
  3  4  2  0  0  0  0
  4  5  1  0  0  0  0
  4  8  1  0  0  0  0
  5  9  1  0  0  0  0
  6 10  1  0  0  0  0
  6  5  2  0  0  0  0
  7  1  1  0  0  0  0
 10 12  2  0  0  0  0
 11 10  2  0  0  0  0
 13  3  1  0  0  0  0
 14 13  2  0  0  0  0
M  RAD  2   2   2  14   2
M  END
