Coordinates from ORCA-job 4-NO2-C6H3-N2-B3LYPG-aug-cc-pVDZ-scan-d09-49-n400
 OpenBabel11091809093D

 14 14  0  0  0  0  0  0  0  0999 V2000
   -1.9672   -0.2457   -0.5410 C   0  0  0  0  0  0  0  0  0  0  0  0
   -0.5691   -0.3156   -0.7676 C   0  0  0  0  0  0  0  0  0  0  0  0
    0.1622    0.8666   -0.1899 C   0  0  0  0  0  0  0  0  0  0  0  0
   -0.5422    1.9498    0.4983 C   0  0  0  0  0  0  0  0  0  0  0  0
   -1.9058    1.9617    0.5478 C   0  0  0  0  0  0  0  0  0  0  0  0
   -2.6020    0.8649   -0.0102 C   0  0  0  0  0  0  0  0  0  0  0  0
   -2.5818   -1.0916   -0.8533 H   0  0  0  0  0  0  0  0  0  0  0  0
    0.0553    2.7373    0.9605 H   0  0  0  0  0  0  0  0  0  0  0  0
   -2.4544    2.7698    1.0241 H   0  0  0  0  0  0  0  0  0  0  0  0
   -4.0869    0.9026    0.0373 N   0  0  0  0  0  0  0  0  0  0  0  0
   -4.6964    0.1161   -0.6770 O   0  0  0  0  0  0  0  0  0  0  0  0
   -4.6039    1.7097    0.8071 O   0  0  0  0  0  0  0  0  0  0  0  0
    1.1904    0.9209   -0.3391 N   0  0  0  0  0  0  0  0  0  0  0  0
    2.3211    0.9569   -0.5175 N   0  0  0  0  0  0  0  0  0  0  0  0
  1  6  1  0  0  0  0
  2  1  2  0  0  0  0
  2  3  1  0  0  0  0
  3  4  2  0  0  0  0
  4  5  1  0  0  0  0
  4  8  1  0  0  0  0
  5  9  1  0  0  0  0
  6 10  1  0  0  0  0
  6  5  2  0  0  0  0
  7  1  1  0  0  0  0
 10 12  2  0  0  0  0
 11 10  2  0  0  0  0
 13  3  1  0  0  0  0
 14 13  1  0  0  0  0
M  RAD  3   2   2  13   2  14   3
M  END
