Coordinates from ORCA-job 4-NO2-C6H3-N2-B3LYPG-aug-cc-pVDZ-scan-d09-49-n400
 OpenBabel11091809093D

 14 13  0  0  0  0  0  0  0  0999 V2000
   -2.2530   -0.2768   -0.6803 C   0  0  0  0  0  0  0  0  0  0  0  0
   -0.8725   -0.1671   -0.7238 C   0  0  0  0  0  0  0  0  0  0  0  0
   -0.2030    0.7741   -0.2399 C   0  0  0  0  0  0  0  0  0  0  0  0
   -0.6311    1.9039    0.4353 C   0  0  0  0  0  0  0  0  0  0  0  0
   -2.0367    1.8945    0.5377 C   0  0  0  0  0  0  0  0  0  0  0  0
   -2.8006    0.8392   -0.0038 C   0  0  0  0  0  0  0  0  0  0  0  0
   -2.8802   -1.0675   -1.0818 H   0  0  0  0  0  0  0  0  0  0  0  0
   -0.0155    2.7023    0.8421 H   0  0  0  0  0  0  0  0  0  0  0  0
   -2.5564    2.7078    1.0399 H   0  0  0  0  0  0  0  0  0  0  0  0
   -4.2721    0.8978    0.1424 N   0  0  0  0  0  0  0  0  0  0  0  0
   -4.9261   -0.0255   -0.3353 O   0  0  0  0  0  0  0  0  0  0  0  0
   -4.7562    1.8641    0.7259 O   0  0  0  0  0  0  0  0  0  0  0  0
    2.5199    1.3002   -0.1498 N   0  0  0  0  0  0  0  0  0  0  0  0
    3.4030    0.7565   -0.5292 N   0  0  0  0  0  0  0  0  0  0  0  0
  1  6  1  0  0  0  0
  2  1  2  0  0  0  0
  2  3  1  0  0  0  0
  3  4  2  0  0  0  0
  4  5  1  0  0  0  0
  4  8  1  0  0  0  0
  5  9  1  0  0  0  0
  6 10  1  0  0  0  0
  6  5  2  0  0  0  0
  7  1  1  0  0  0  0
 10 12  2  0  0  0  0
 11 10  2  0  0  0  0
 14 13  3  0  0  0  0
M  RAD  2   2   2   3   2
M  END
