Coordinates from ORCA-job 4-NO2-C6H3-N2-B3LYPG-aug-cc-pVDZ-scan-d09-49-n400
 OpenBabel11091809093D

 14 14  0  0  0  0  0  0  0  0999 V2000
   -1.9776   -0.2344   -0.5702 C   0  0  0  0  0  0  0  0  0  0  0  0
   -0.5654   -0.3013   -0.7582 C   0  0  0  0  0  0  0  0  0  0  0  0
    0.0861    0.8612   -0.1896 C   0  0  0  0  0  0  0  0  0  0  0  0
   -0.5528    1.9692    0.4806 C   0  0  0  0  0  0  0  0  0  0  0  0
   -1.9210    1.9685    0.5461 C   0  0  0  0  0  0  0  0  0  0  0  0
   -2.6097    0.8646   -0.0112 C   0  0  0  0  0  0  0  0  0  0  0  0
   -2.5972   -1.0691   -0.9009 H   0  0  0  0  0  0  0  0  0  0  0  0
    0.0391    2.7729    0.9205 H   0  0  0  0  0  0  0  0  0  0  0  0
   -2.4762    2.7725    1.0211 H   0  0  0  0  0  0  0  0  0  0  0  0
   -4.0961    0.8898    0.0612 N   0  0  0  0  0  0  0  0  0  0  0  0
   -4.7131    0.1077   -0.6517 O   0  0  0  0  0  0  0  0  0  0  0  0
   -4.6087    1.6863    0.8451 O   0  0  0  0  0  0  0  0  0  0  0  0
    1.2976    0.9000   -0.3345 N   0  0  0  0  0  0  0  0  0  0  0  0
    2.4145    0.9155   -0.4788 N   0  0  0  0  0  0  0  0  0  0  0  0
  1  6  1  0  0  0  0
  2  1  2  0  0  0  0
  2  3  1  0  0  0  0
  3  4  2  0  0  0  0
  4  5  1  0  0  0  0
  4  8  1  0  0  0  0
  5  9  1  0  0  0  0
  6 10  1  0  0  0  0
  6  5  2  0  0  0  0
  7  1  1  0  0  0  0
 10 12  2  0  0  0  0
 11 10  2  0  0  0  0
 13  3  1  0  0  0  0
 14 13  1  0  0  0  0
M  RAD  3   2   2  13   2  14   3
M  END
