Coordinates from ORCA-job 4-NO2-C6H3-N2-B3LYPG-aug-cc-pVDZ-scan-d09-49-n400
 OpenBabel11091809093D

 14 14  0  0  0  0  0  0  0  0999 V2000
   -1.9938   -0.1853   -0.6478 C   0  0  0  0  0  0  0  0  0  0  0  0
   -0.5782   -0.1688   -0.7478 C   0  0  0  0  0  0  0  0  0  0  0  0
   -0.0613    0.9081   -0.1753 C   0  0  0  0  0  0  0  0  0  0  0  0
   -0.5857    2.0115    0.4926 C   0  0  0  0  0  0  0  0  0  0  0  0
   -1.9735    1.9692    0.5757 C   0  0  0  0  0  0  0  0  0  0  0  0
   -2.6439    0.8692    0.0020 C   0  0  0  0  0  0  0  0  0  0  0  0
   -2.5937   -0.9950   -1.0620 H   0  0  0  0  0  0  0  0  0  0  0  0
    0.0085    2.8246    0.9091 H   0  0  0  0  0  0  0  0  0  0  0  0
   -2.5408    2.7549    1.0662 H   0  0  0  0  0  0  0  0  0  0  0  0
   -4.1267    0.8474    0.1042 N   0  0  0  0  0  0  0  0  0  0  0  0
   -4.7198   -0.1021   -0.3965 O   0  0  0  0  0  0  0  0  0  0  0  0
   -4.6745    1.7877    0.6761 O   0  0  0  0  0  0  0  0  0  0  0  0
    1.5869    0.9536   -0.2766 N   0  0  0  0  0  0  0  0  0  0  0  0
    2.6161    0.6283   -0.5406 N   0  0  0  0  0  0  0  0  0  0  0  0
  1  6  1  0  0  0  0
  2  1  2  0  0  0  0
  2  3  1  0  0  0  0
  3  4  2  0  0  0  0
  4  5  1  0  0  0  0
  4  8  1  0  0  0  0
  5  9  1  0  0  0  0
  6 10  1  0  0  0  0
  6  5  2  0  0  0  0
  7  1  1  0  0  0  0
 10 12  2  0  0  0  0
 11 10  2  0  0  0  0
 13  3  1  0  0  0  0
 14 13  1  0  0  0  0
M  RAD  3   2   2  13   2  14   3
M  END
