Coordinates from ORCA-job 4-NO2-C6H3-N2-B3LYPG-aug-cc-pVDZ-scan-d09-49-n400
 OpenBabel11091809093D

 14 14  0  0  0  0  0  0  0  0999 V2000
   -1.9893   -0.1869   -0.6461 C   0  0  0  0  0  0  0  0  0  0  0  0
   -0.5687   -0.2089   -0.7676 C   0  0  0  0  0  0  0  0  0  0  0  0
   -0.0377    0.8942   -0.1842 C   0  0  0  0  0  0  0  0  0  0  0  0
   -0.5793    2.0028    0.4842 C   0  0  0  0  0  0  0  0  0  0  0  0
   -1.9618    1.9700    0.5715 C   0  0  0  0  0  0  0  0  0  0  0  0
   -2.6339    0.8684   -0.0010 C   0  0  0  0  0  0  0  0  0  0  0  0
   -2.6002   -0.9923   -1.0537 H   0  0  0  0  0  0  0  0  0  0  0  0
    0.0155    2.8164    0.8992 H   0  0  0  0  0  0  0  0  0  0  0  0
   -2.5261    2.7581    1.0612 H   0  0  0  0  0  0  0  0  0  0  0  0
   -4.1194    0.8541    0.1044 N   0  0  0  0  0  0  0  0  0  0  0  0
   -4.7199   -0.0836   -0.4080 O   0  0  0  0  0  0  0  0  0  0  0  0
   -4.6575    1.7850    0.7006 O   0  0  0  0  0  0  0  0  0  0  0  0
    1.5099    0.9098   -0.2954 N   0  0  0  0  0  0  0  0  0  0  0  0
    2.5878    0.7163   -0.4858 N   0  0  0  0  0  0  0  0  0  0  0  0
  1  6  1  0  0  0  0
  2  1  2  0  0  0  0
  2  3  1  0  0  0  0
  3  4  2  0  0  0  0
  4  5  1  0  0  0  0
  4  8  1  0  0  0  0
  5  9  1  0  0  0  0
  6 10  1  0  0  0  0
  6  5  2  0  0  0  0
  7  1  1  0  0  0  0
 10 12  2  0  0  0  0
 11 10  2  0  0  0  0
 13  3  1  0  0  0  0
 14 13  1  0  0  0  0
M  RAD  3   2   2  13   2  14   3
M  END
