Coordinates from ORCA-job 4-NO2-C6H3-N2-B3LYPG-aug-cc-pVDZ-scan-d09-49-n400
 OpenBabel11091809093D

 14 13  0  0  0  0  0  0  0  0999 V2000
   -2.2970   -0.2903   -0.6860 C   0  0  0  0  0  0  0  0  0  0  0  0
   -0.9169   -0.1953   -0.7368 C   0  0  0  0  0  0  0  0  0  0  0  0
   -0.2236    0.7329   -0.2619 C   0  0  0  0  0  0  0  0  0  0  0  0
   -0.6359    1.8693    0.4153 C   0  0  0  0  0  0  0  0  0  0  0  0
   -2.0406    1.8794    0.5277 C   0  0  0  0  0  0  0  0  0  0  0  0
   -2.8235    0.8345   -0.0068 C   0  0  0  0  0  0  0  0  0  0  0  0
   -2.9372   -1.0729   -1.0823 H   0  0  0  0  0  0  0  0  0  0  0  0
   -0.0065    2.6596    0.8167 H   0  0  0  0  0  0  0  0  0  0  0  0
   -2.5453    2.7004    1.0327 H   0  0  0  0  0  0  0  0  0  0  0  0
   -4.2930    0.9134    0.1495 N   0  0  0  0  0  0  0  0  0  0  0  0
   -4.9623   -0.0053   -0.3157 O   0  0  0  0  0  0  0  0  0  0  0  0
   -4.7591    1.8831    0.7420 O   0  0  0  0  0  0  0  0  0  0  0  0
    2.6462    1.3780   -0.1134 N   0  0  0  0  0  0  0  0  0  0  0  0
    3.5142    0.8165   -0.5015 N   0  0  0  0  0  0  0  0  0  0  0  0
  1  6  1  0  0  0  0
  2  1  2  0  0  0  0
  2  3  1  0  0  0  0
  3  4  2  0  0  0  0
  4  5  1  0  0  0  0
  4  8  1  0  0  0  0
  5  9  1  0  0  0  0
  6 10  1  0  0  0  0
  6  5  2  0  0  0  0
  7  1  1  0  0  0  0
 10 12  2  0  0  0  0
 11 10  2  0  0  0  0
 14 13  3  0  0  0  0
M  RAD  2   2   2   3   2
M  END
