Coordinates from ORCA-job 4-NO2-C6H3-N2-B3LYPG-aug-cc-pVDZ-scan-d09-49-n400
 OpenBabel11091809093D

 14 14  0  0  0  0  0  0  0  0999 V2000
   -1.9712   -0.2453   -0.5456 C   0  0  0  0  0  0  0  0  0  0  0  0
   -0.5681   -0.3101   -0.7619 C   0  0  0  0  0  0  0  0  0  0  0  0
    0.1309    0.8636   -0.1934 C   0  0  0  0  0  0  0  0  0  0  0  0
   -0.5451    1.9555    0.4938 C   0  0  0  0  0  0  0  0  0  0  0  0
   -1.9105    1.9640    0.5471 C   0  0  0  0  0  0  0  0  0  0  0  0
   -2.6045    0.8648   -0.0113 C   0  0  0  0  0  0  0  0  0  0  0  0
   -2.5874   -1.0902   -0.8568 H   0  0  0  0  0  0  0  0  0  0  0  0
    0.0495    2.7465    0.9533 H   0  0  0  0  0  0  0  0  0  0  0  0
   -2.4618    2.7700    1.0236 H   0  0  0  0  0  0  0  0  0  0  0  0
   -4.0895    0.9006    0.0415 N   0  0  0  0  0  0  0  0  0  0  0  0
   -4.7012    0.1227   -0.6805 O   0  0  0  0  0  0  0  0  0  0  0  0
   -4.6056    1.6981    0.8221 O   0  0  0  0  0  0  0  0  0  0  0  0
    1.2300    0.9157   -0.3433 N   0  0  0  0  0  0  0  0  0  0  0  0
    2.3541    0.9477   -0.5092 N   0  0  0  0  0  0  0  0  0  0  0  0
  1  6  1  0  0  0  0
  2  1  2  0  0  0  0
  2  3  1  0  0  0  0
  3  4  2  0  0  0  0
  4  5  1  0  0  0  0
  4  8  1  0  0  0  0
  5  9  1  0  0  0  0
  6 10  1  0  0  0  0
  6  5  2  0  0  0  0
  7  1  1  0  0  0  0
 10 12  2  0  0  0  0
 11 10  2  0  0  0  0
 13  3  1  0  0  0  0
 14 13  1  0  0  0  0
M  RAD  3   2   2  13   2  14   3
M  END
