Coordinates from ORCA-job 4-NO2-C6H3-N2-B3LYPG-aug-cc-pVDZ-scan-d09-49-n400
 OpenBabel11091809093D

 14 13  0  0  0  0  0  0  0  0999 V2000
   -2.0686   -0.2177   -0.6613 C   0  0  0  0  0  0  0  0  0  0  0  0
   -0.6772   -0.0960   -0.6983 C   0  0  0  0  0  0  0  0  0  0  0  0
   -0.1147    0.9061   -0.1716 C   0  0  0  0  0  0  0  0  0  0  0  0
   -0.5989    2.0122    0.4943 C   0  0  0  0  0  0  0  0  0  0  0  0
   -2.0009    1.9493    0.5656 C   0  0  0  0  0  0  0  0  0  0  0  0
   -2.6946    0.8597   -0.0009 C   0  0  0  0  0  0  0  0  0  0  0  0
   -2.6551   -1.0322   -1.0796 H   0  0  0  0  0  0  0  0  0  0  0  0
   -0.0139    2.8284    0.9138 H   0  0  0  0  0  0  0  0  0  0  0  0
   -2.5672    2.7371    1.0568 H   0  0  0  0  0  0  0  0  0  0  0  0
   -4.1715    0.8504    0.1066 N   0  0  0  0  0  0  0  0  0  0  0  0
   -4.7709   -0.1003   -0.3880 O   0  0  0  0  0  0  0  0  0  0  0  0
   -4.7140    1.7907    0.6826 O   0  0  0  0  0  0  0  0  0  0  0  0
    1.9493    1.0906   -0.2247 N   0  0  0  0  0  0  0  0  0  0  0  0
    2.8177    0.5250   -0.6155 N   0  0  0  0  0  0  0  0  0  0  0  0
  1  6  1  0  0  0  0
  2  1  2  0  0  0  0
  2  3  1  0  0  0  0
  3  4  2  0  0  0  0
  4  5  1  0  0  0  0
  4  8  1  0  0  0  0
  5  9  1  0  0  0  0
  6 10  1  0  0  0  0
  6  5  2  0  0  0  0
  7  1  1  0  0  0  0
 10 12  2  0  0  0  0
 11 10  2  0  0  0  0
 14 13  3  0  0  0  0
M  RAD  2   2   2   3   2
M  END
