Coordinates from ORCA-job 4-NO2-C6H3-N2-B3LYPG-aug-cc-pVDZ-scan-d09-49-n400
 OpenBabel11091809093D

 14 13  0  0  0  0  0  0  0  0999 V2000
   -2.8571   -0.4612   -0.7390 C   0  0  0  0  0  0  0  0  0  0  0  0
   -1.5172   -0.7026   -0.9789 C   0  0  0  0  0  0  0  0  0  0  0  0
   -0.5493    0.0176   -0.6436 C   0  0  0  0  0  0  0  0  0  0  0  0
   -0.5784    1.2234    0.0438 C   0  0  0  0  0  0  0  0  0  0  0  0
   -1.9076    1.5792    0.3478 C   0  0  0  0  0  0  0  0  0  0  0  0
   -2.9902    0.7598   -0.0350 C   0  0  0  0  0  0  0  0  0  0  0  0
   -3.7175   -1.0633   -1.0153 H   0  0  0  0  0  0  0  0  0  0  0  0
    0.2700    1.8406    0.3296 H   0  0  0  0  0  0  0  0  0  0  0  0
   -2.1190    2.5000    0.8873 H   0  0  0  0  0  0  0  0  0  0  0  0
   -4.3585    1.1983    0.3191 N   0  0  0  0  0  0  0  0  0  0  0  0
   -5.2909    0.4749   -0.0209 O   0  0  0  0  0  0  0  0  0  0  0  0
   -4.4852    2.2564    0.9296 O   0  0  0  0  0  0  0  0  0  0  0  0
    3.3663    2.2983    0.3515 N   0  0  0  0  0  0  0  0  0  0  0  0
    4.4542    2.1820    0.2034 N   0  0  0  0  0  0  0  0  0  0  0  0
  1  6  1  0  0  0  0
  2  1  2  0  0  0  0
  2  3  1  0  0  0  0
  3  4  2  0  0  0  0
  4  8  1  0  0  0  0
  4  5  1  0  0  0  0
  5  9  1  0  0  0  0
  6 10  1  0  0  0  0
  6  5  2  0  0  0  0
  7  1  1  0  0  0  0
 10 12  2  0  0  0  0
 11 10  2  0  0  0  0
 14 13  3  0  0  0  0
M  RAD  2   2   2   3   2
M  END
