Coordinates from ORCA-job 4-NO2-C6H3-N2-B3LYPG-aug-cc-pVDZ-scan-d09-49-n400
 OpenBabel11091809093D

 14 14  0  0  0  0  0  0  0  0999 V2000
   -1.9829   -0.2158   -0.6065 C   0  0  0  0  0  0  0  0  0  0  0  0
   -0.5630   -0.2805   -0.7628 C   0  0  0  0  0  0  0  0  0  0  0  0
    0.0418    0.8687   -0.1904 C   0  0  0  0  0  0  0  0  0  0  0  0
   -0.5618    1.9866    0.4681 C   0  0  0  0  0  0  0  0  0  0  0  0
   -1.9335    1.9720    0.5489 C   0  0  0  0  0  0  0  0  0  0  0  0
   -2.6155    0.8645   -0.0093 C   0  0  0  0  0  0  0  0  0  0  0  0
   -2.6044   -1.0344   -0.9709 H   0  0  0  0  0  0  0  0  0  0  0  0
    0.0287    2.8027    0.8858 H   0  0  0  0  0  0  0  0  0  0  0  0
   -2.4930    2.7711    1.0266 H   0  0  0  0  0  0  0  0  0  0  0  0
   -4.1034    0.8735    0.0877 N   0  0  0  0  0  0  0  0  0  0  0  0
   -4.7229    0.0531   -0.5781 O   0  0  0  0  0  0  0  0  0  0  0  0
   -4.6158    1.7007    0.8389 O   0  0  0  0  0  0  0  0  0  0  0  0
    1.3667    0.8821   -0.3179 N   0  0  0  0  0  0  0  0  0  0  0  0
    2.4785    0.8592   -0.4407 N   0  0  0  0  0  0  0  0  0  0  0  0
  1  6  1  0  0  0  0
  2  1  2  0  0  0  0
  2  3  1  0  0  0  0
  3  4  2  0  0  0  0
  4  5  1  0  0  0  0
  4  8  1  0  0  0  0
  5  9  1  0  0  0  0
  6 10  1  0  0  0  0
  6  5  2  0  0  0  0
  7  1  1  0  0  0  0
 10 12  2  0  0  0  0
 11 10  2  0  0  0  0
 13  3  1  0  0  0  0
 14 13  1  0  0  0  0
M  RAD  3   2   2  13   2  14   3
M  END
