Coordinates from ORCA-job 4-NO2-C6H3-N2-B3LYPG-aug-cc-pVDZ-scan-d09-49-n400
 OpenBabel11091809093D

 14 13  0  0  0  0  0  0  0  0999 V2000
   -2.2641   -0.2802   -0.6818 C   0  0  0  0  0  0  0  0  0  0  0  0
   -0.8835   -0.1747   -0.7274 C   0  0  0  0  0  0  0  0  0  0  0  0
   -0.2087    0.7637   -0.2454 C   0  0  0  0  0  0  0  0  0  0  0  0
   -0.6321    1.8952    0.4302 C   0  0  0  0  0  0  0  0  0  0  0  0
   -2.0376    1.8908    0.5352 C   0  0  0  0  0  0  0  0  0  0  0  0
   -2.8063    0.8381   -0.0046 C   0  0  0  0  0  0  0  0  0  0  0  0
   -2.8948   -1.0688   -1.0820 H   0  0  0  0  0  0  0  0  0  0  0  0
   -0.0130    2.6915    0.8357 H   0  0  0  0  0  0  0  0  0  0  0  0
   -2.5536    2.7060    1.0380 H   0  0  0  0  0  0  0  0  0  0  0  0
   -4.2773    0.9020    0.1441 N   0  0  0  0  0  0  0  0  0  0  0  0
   -4.9352   -0.0204   -0.3301 O   0  0  0  0  0  0  0  0  0  0  0  0
   -4.7568    1.8690    0.7303 O   0  0  0  0  0  0  0  0  0  0  0  0
    2.5493    1.3166   -0.1422 N   0  0  0  0  0  0  0  0  0  0  0  0
    3.4334    0.7746   -0.5206 N   0  0  0  0  0  0  0  0  0  0  0  0
  1  6  1  0  0  0  0
  2  1  2  0  0  0  0
  2  3  1  0  0  0  0
  3  4  2  0  0  0  0
  4  5  1  0  0  0  0
  4  8  1  0  0  0  0
  5  9  1  0  0  0  0
  6 10  1  0  0  0  0
  6  5  2  0  0  0  0
  7  1  1  0  0  0  0
 10 12  2  0  0  0  0
 11 10  2  0  0  0  0
 14 13  3  0  0  0  0
M  RAD  2   2   2   3   2
M  END
