Coordinates from ORCA-job 4-NO2-C6H3-N2-B3LYPG-aug-cc-pVDZ-scan-d09-49-n400
 OpenBabel11091809093D

 14 13  0  0  0  0  0  0  0  0999 V2000
   -2.6807   -0.4137   -0.7255 C   0  0  0  0  0  0  0  0  0  0  0  0
   -1.3129   -0.5256   -0.8935 C   0  0  0  0  0  0  0  0  0  0  0  0
   -0.4384    0.2806   -0.5021 C   0  0  0  0  0  0  0  0  0  0  0  0
   -0.6179    1.4713    0.1882 C   0  0  0  0  0  0  0  0  0  0  0  0
   -1.9894    1.6967    0.4211 C   0  0  0  0  0  0  0  0  0  0  0  0
   -2.9670    0.7822   -0.0240 C   0  0  0  0  0  0  0  0  0  0  0  0
   -3.4640   -1.0916   -1.0509 H   0  0  0  0  0  0  0  0  0  0  0  0
    0.1530    2.1618    0.5217 H   0  0  0  0  0  0  0  0  0  0  0  0
   -2.3163    2.5880    0.9525 H   0  0  0  0  0  0  0  0  0  0  0  0
   -4.3878    1.0858    0.2570 N   0  0  0  0  0  0  0  0  0  0  0  0
   -5.2275    0.2806   -0.1367 O   0  0  0  0  0  0  0  0  0  0  0  0
   -4.6473    2.1210    0.8647 O   0  0  0  0  0  0  0  0  0  0  0  0
    3.3025    2.0074    0.1917 N   0  0  0  0  0  0  0  0  0  0  0  0
    4.3130    1.6588   -0.0848 N   0  0  0  0  0  0  0  0  0  0  0  0
  1  6  1  0  0  0  0
  2  1  2  0  0  0  0
  2  3  1  0  0  0  0
  3  4  2  0  0  0  0
  4  5  1  0  0  0  0
  4  8  1  0  0  0  0
  5  9  1  0  0  0  0
  6 10  1  0  0  0  0
  6  5  2  0  0  0  0
  7  1  1  0  0  0  0
 10 12  2  0  0  0  0
 11 10  2  0  0  0  0
 14 13  3  0  0  0  0
M  RAD  2   2   2   3   2
M  END
