Coordinates from ORCA-job 4-NO2-C6H3-N2-B3LYPG-aug-cc-pVDZ-scan-d09-49-n400
 OpenBabel11091809093D

 14 13  0  0  0  0  0  0  0  0999 V2000
   -2.3888   -0.3209   -0.6944 C   0  0  0  0  0  0  0  0  0  0  0  0
   -1.0086   -0.2646   -0.7684 C   0  0  0  0  0  0  0  0  0  0  0  0
   -0.2728    0.6392   -0.3111 C   0  0  0  0  0  0  0  0  0  0  0  0
   -0.6415    1.7892    0.3712 C   0  0  0  0  0  0  0  0  0  0  0  0
   -2.0430    1.8423    0.5091 C   0  0  0  0  0  0  0  0  0  0  0  0
   -2.8675    0.8210   -0.0082 C   0  0  0  0  0  0  0  0  0  0  0  0
   -3.0593   -1.0847   -1.0771 H   0  0  0  0  0  0  0  0  0  0  0  0
    0.0171    2.5618    0.7599 H   0  0  0  0  0  0  0  0  0  0  0  0
   -2.5130    2.6793    1.0212 H   0  0  0  0  0  0  0  0  0  0  0  0
   -4.3309    0.9446    0.1748 N   0  0  0  0  0  0  0  0  0  0  0  0
   -5.0366    0.0511   -0.2856 O   0  0  0  0  0  0  0  0  0  0  0  0
   -4.7570    1.9343    0.7640 O   0  0  0  0  0  0  0  0  0  0  0  0
    2.8847    1.5448   -0.0392 N   0  0  0  0  0  0  0  0  0  0  0  0
    3.7367    0.9658   -0.4369 N   0  0  0  0  0  0  0  0  0  0  0  0
  1  6  1  0  0  0  0
  2  1  2  0  0  0  0
  2  3  1  0  0  0  0
  3  4  2  0  0  0  0
  4  5  1  0  0  0  0
  4  8  1  0  0  0  0
  5  9  1  0  0  0  0
  6 10  1  0  0  0  0
  6  5  2  0  0  0  0
  7  1  1  0  0  0  0
 10 12  2  0  0  0  0
 11 10  2  0  0  0  0
 14 13  3  0  0  0  0
M  RAD  2   2   2   3   2
M  END
