Coordinates from ORCA-job 4-NO2-C6H3-N2-B3LYPG-aug-cc-pVDZ-scan-d09-49-n400
 OpenBabel11091809093D

 14 13  0  0  0  0  0  0  0  0999 V2000
   -2.3915   -0.3214   -0.6954 C   0  0  0  0  0  0  0  0  0  0  0  0
   -1.0114   -0.2667   -0.7697 C   0  0  0  0  0  0  0  0  0  0  0  0
   -0.2743    0.6363   -0.3128 C   0  0  0  0  0  0  0  0  0  0  0  0
   -0.6415    1.7869    0.3693 C   0  0  0  0  0  0  0  0  0  0  0  0
   -2.0430    1.8417    0.5076 C   0  0  0  0  0  0  0  0  0  0  0  0
   -2.8688    0.8213   -0.0094 C   0  0  0  0  0  0  0  0  0  0  0  0
   -3.0630   -1.0844   -1.0778 H   0  0  0  0  0  0  0  0  0  0  0  0
    0.0181    2.5588    0.7577 H   0  0  0  0  0  0  0  0  0  0  0  0
   -2.5118    2.6793    1.0196 H   0  0  0  0  0  0  0  0  0  0  0  0
   -4.3319    0.9467    0.1737 N   0  0  0  0  0  0  0  0  0  0  0  0
   -5.0385    0.0512   -0.2816 O   0  0  0  0  0  0  0  0  0  0  0  0
   -4.7565    1.9344    0.7675 O   0  0  0  0  0  0  0  0  0  0  0  0
    2.8911    1.5494   -0.0360 N   0  0  0  0  0  0  0  0  0  0  0  0
    3.7424    0.9701   -0.4333 N   0  0  0  0  0  0  0  0  0  0  0  0
  1  6  1  0  0  0  0
  2  1  2  0  0  0  0
  2  3  1  0  0  0  0
  3  4  2  0  0  0  0
  4  5  1  0  0  0  0
  4  8  1  0  0  0  0
  5  9  1  0  0  0  0
  6 10  1  0  0  0  0
  6  5  2  0  0  0  0
  7  1  1  0  0  0  0
 10 12  2  0  0  0  0
 11 10  2  0  0  0  0
 14 13  3  0  0  0  0
M  RAD  2   2   2   3   2
M  END
