Coordinates from ORCA-job 4-NO2-C6H3-N2-B3LYPG-aug-cc-pVDZ-scan-d09-49-n400
 OpenBabel11091809093D

 14 13  0  0  0  0  0  0  0  0999 V2000
   -2.6998   -0.4195   -0.7274 C   0  0  0  0  0  0  0  0  0  0  0  0
   -1.3341   -0.5442   -0.9025 C   0  0  0  0  0  0  0  0  0  0  0  0
   -0.4495    0.2535   -0.5168 C   0  0  0  0  0  0  0  0  0  0  0  0
   -0.6135    1.4468    0.1737 C   0  0  0  0  0  0  0  0  0  0  0  0
   -1.9818    1.6848    0.4136 C   0  0  0  0  0  0  0  0  0  0  0  0
   -2.9706    0.7795   -0.0253 C   0  0  0  0  0  0  0  0  0  0  0  0
   -3.4913   -1.0902   -1.0481 H   0  0  0  0  0  0  0  0  0  0  0  0
    0.1644    2.1313    0.5033 H   0  0  0  0  0  0  0  0  0  0  0  0
   -2.2975    2.5795    0.9461 H   0  0  0  0  0  0  0  0  0  0  0  0
   -4.3869    1.0971    0.2634 N   0  0  0  0  0  0  0  0  0  0  0  0
   -5.2364    0.2996   -0.1248 O   0  0  0  0  0  0  0  0  0  0  0  0
   -4.6330    2.1350    0.8720 O   0  0  0  0  0  0  0  0  0  0  0  0
    3.3143    2.0388    0.2084 N   0  0  0  0  0  0  0  0  0  0  0  0
    4.3350    1.7113   -0.0560 N   0  0  0  0  0  0  0  0  0  0  0  0
  1  6  1  0  0  0  0
  2  1  2  0  0  0  0
  2  3  1  0  0  0  0
  3  4  2  0  0  0  0
  4  5  1  0  0  0  0
  4  8  1  0  0  0  0
  5  9  1  0  0  0  0
  6 10  1  0  0  0  0
  6  5  2  0  0  0  0
  7  1  1  0  0  0  0
 10 12  2  0  0  0  0
 11 10  2  0  0  0  0
 14 13  3  0  0  0  0
M  RAD  2   2   2   3   2
M  END
