Coordinates from ORCA-job 4-NO2-C6H3-N2-B3LYPG-aug-cc-pVDZ-scan-d09-49-n400
 OpenBabel11091809093D

 14 13  0  0  0  0  0  0  0  0999 V2000
   -2.1131   -0.2308   -0.6669 C   0  0  0  0  0  0  0  0  0  0  0  0
   -0.7276   -0.0961   -0.6955 C   0  0  0  0  0  0  0  0  0  0  0  0
   -0.1375    0.8874   -0.1810 C   0  0  0  0  0  0  0  0  0  0  0  0
   -0.6118    1.9980    0.4866 C   0  0  0  0  0  0  0  0  0  0  0  0
   -2.0162    1.9398    0.5601 C   0  0  0  0  0  0  0  0  0  0  0  0
   -2.7233    0.8563   -0.0025 C   0  0  0  0  0  0  0  0  0  0  0  0
   -2.7043   -1.0421   -1.0834 H   0  0  0  0  0  0  0  0  0  0  0  0
   -0.0254    2.8129    0.9054 H   0  0  0  0  0  0  0  0  0  0  0  0
   -2.5762    2.7315    1.0527 H   0  0  0  0  0  0  0  0  0  0  0  0
   -4.1993    0.8589    0.1109 N   0  0  0  0  0  0  0  0  0  0  0  0
   -4.8071   -0.0909   -0.3755 O   0  0  0  0  0  0  0  0  0  0  0  0
   -4.7319    1.8001    0.6939 O   0  0  0  0  0  0  0  0  0  0  0  0
    2.1224    1.1326   -0.2133 N   0  0  0  0  0  0  0  0  0  0  0  0
    2.9707    0.5458   -0.6121 N   0  0  0  0  0  0  0  0  0  0  0  0
  1  6  1  0  0  0  0
  2  1  2  0  0  0  0
  2  3  1  0  0  0  0
  3  4  2  0  0  0  0
  4  5  1  0  0  0  0
  4  8  1  0  0  0  0
  5  9  1  0  0  0  0
  6 10  1  0  0  0  0
  6  5  2  0  0  0  0
  7  1  1  0  0  0  0
 10 12  2  0  0  0  0
 11 10  2  0  0  0  0
 14 13  3  0  0  0  0
M  RAD  2   2   2   3   2
M  END
