Coordinates from ORCA-job 4-NO2-C6H3-N2-B3LYPG-aug-cc-pVDZ-scan-d09-49-n400
 OpenBabel11091809093D

 14 14  0  0  0  0  0  0  0  0999 V2000
   -2.0047   -0.1912   -0.6497 C   0  0  0  0  0  0  0  0  0  0  0  0
   -0.5957   -0.1383   -0.7288 C   0  0  0  0  0  0  0  0  0  0  0  0
   -0.0748    0.9152   -0.1700 C   0  0  0  0  0  0  0  0  0  0  0  0
   -0.5874    2.0167    0.4960 C   0  0  0  0  0  0  0  0  0  0  0  0
   -1.9800    1.9655    0.5748 C   0  0  0  0  0  0  0  0  0  0  0  0
   -2.6534    0.8674    0.0026 C   0  0  0  0  0  0  0  0  0  0  0  0
   -2.5967   -1.0046   -1.0664 H   0  0  0  0  0  0  0  0  0  0  0  0
    0.0040    2.8311    0.9133 H   0  0  0  0  0  0  0  0  0  0  0  0
   -2.5490    2.7505    1.0653 H   0  0  0  0  0  0  0  0  0  0  0  0
   -4.1340    0.8442    0.1044 N   0  0  0  0  0  0  0  0  0  0  0  0
   -4.7254   -0.1054   -0.3995 O   0  0  0  0  0  0  0  0  0  0  0  0
   -4.6849    1.7850    0.6725 O   0  0  0  0  0  0  0  0  0  0  0  0
    1.6632    0.9971   -0.2583 N   0  0  0  0  0  0  0  0  0  0  0  0
    2.6385    0.5703   -0.5767 N   0  0  0  0  0  0  0  0  0  0  0  0
  1  6  1  0  0  0  0
  2  1  2  0  0  0  0
  2  3  1  0  0  0  0
  3  4  2  0  0  0  0
  4  5  1  0  0  0  0
  4  8  1  0  0  0  0
  5  9  1  0  0  0  0
  6 10  1  0  0  0  0
  6  5  2  0  0  0  0
  7  1  1  0  0  0  0
 10 12  2  0  0  0  0
 11 10  2  0  0  0  0
 13  3  1  0  0  0  0
 14 13  2  0  0  0  0
M  RAD  2   2   2  14   2
M  END
