Coordinates from ORCA-job 4-NO2-C6H3-N2-B3LYPG-aug-cc-pVDZ-scan-d09-49-n400
 OpenBabel11091809093D

 14 13  0  0  0  0  0  0  0  0999 V2000
   -2.3836   -0.3186   -0.6945 C   0  0  0  0  0  0  0  0  0  0  0  0
   -1.0034   -0.2597   -0.7664 C   0  0  0  0  0  0  0  0  0  0  0  0
   -0.2694    0.6451   -0.3081 C   0  0  0  0  0  0  0  0  0  0  0  0
   -0.6417    1.7944    0.3736 C   0  0  0  0  0  0  0  0  0  0  0  0
   -2.0434    1.8451    0.5095 C   0  0  0  0  0  0  0  0  0  0  0  0
   -2.8654    0.8224   -0.0090 C   0  0  0  0  0  0  0  0  0  0  0  0
   -3.0520   -1.0836   -1.0782 H   0  0  0  0  0  0  0  0  0  0  0  0
    0.0153    2.5680    0.7632 H   0  0  0  0  0  0  0  0  0  0  0  0
   -2.5155    2.6813    1.0209 H   0  0  0  0  0  0  0  0  0  0  0  0
   -4.3292    0.9435    0.1716 N   0  0  0  0  0  0  0  0  0  0  0  0
   -5.0324    0.0459   -0.2849 O   0  0  0  0  0  0  0  0  0  0  0  0
   -4.7577    1.9297    0.7650 O   0  0  0  0  0  0  0  0  0  0  0  0
    2.8725    1.5339   -0.0433 N   0  0  0  0  0  0  0  0  0  0  0  0
    3.7255    0.9559   -0.4400 N   0  0  0  0  0  0  0  0  0  0  0  0
  1  6  1  0  0  0  0
  2  1  2  0  0  0  0
  2  3  1  0  0  0  0
  3  4  2  0  0  0  0
  4  5  1  0  0  0  0
  4  8  1  0  0  0  0
  5  9  1  0  0  0  0
  6 10  1  0  0  0  0
  6  5  2  0  0  0  0
  7  1  1  0  0  0  0
 10 12  2  0  0  0  0
 11 10  2  0  0  0  0
 14 13  3  0  0  0  0
M  RAD  2   2   2   3   2
M  END
