Coordinates from ORCA-job 4-NO2-C6H3-N2-B3LYPG-aug-cc-pVDZ-scan-d09-49-n400
 OpenBabel11091809093D

 14 14  0  0  0  0  0  0  0  0999 V2000
   -1.9623   -0.2295   -0.5690 C   0  0  0  0  0  0  0  0  0  0  0  0
   -0.5732   -0.3341   -0.7942 C   0  0  0  0  0  0  0  0  0  0  0  0
    0.2330    0.9029   -0.1963 C   0  0  0  0  0  0  0  0  0  0  0  0
   -0.5418    1.9597    0.4808 C   0  0  0  0  0  0  0  0  0  0  0  0
   -1.9024    1.9599    0.5445 C   0  0  0  0  0  0  0  0  0  0  0  0
   -2.5989    0.8660   -0.0082 C   0  0  0  0  0  0  0  0  0  0  0  0
   -2.5786   -1.0636   -0.9110 H   0  0  0  0  0  0  0  0  0  0  0  0
    0.0572    2.7557    0.9274 H   0  0  0  0  0  0  0  0  0  0  0  0
   -2.4477    2.7671    1.0264 H   0  0  0  0  0  0  0  0  0  0  0  0
   -4.0844    0.8903    0.0595 N   0  0  0  0  0  0  0  0  0  0  0  0
   -4.6950    0.0724   -0.6169 O   0  0  0  0  0  0  0  0  0  0  0  0
   -4.5981    1.7226    0.8031 O   0  0  0  0  0  0  0  0  0  0  0  0
    1.1262    0.9189   -0.3056 N   0  0  0  0  0  0  0  0  0  0  0  0
    2.2856    0.9150   -0.4610 N   0  0  0  0  0  0  0  0  0  0  0  0
  1  6  1  0  0  0  0
  2  1  2  0  0  0  0
  2  3  1  0  0  0  0
  3  4  2  0  0  0  0
  4  5  1  0  0  0  0
  4  8  1  0  0  0  0
  5  9  1  0  0  0  0
  6 10  1  0  0  0  0
  6  5  2  0  0  0  0
  7  1  1  0  0  0  0
 10 12  2  0  0  0  0
 11 10  2  0  0  0  0
 13  3  1  0  0  0  0
 14 13  1  0  0  0  0
M  RAD  3   2   2  13   2  14   3
M  END
