Coordinates from ORCA-job 4-NO2-C6H3-N2-B3LYPG-aug-cc-pVDZ-scan-d09-49-n400
 OpenBabel11091809093D

 14 13  0  0  0  0  0  0  0  0999 V2000
   -2.0535   -0.2115   -0.6598 C   0  0  0  0  0  0  0  0  0  0  0  0
   -0.6590   -0.0998   -0.7020 C   0  0  0  0  0  0  0  0  0  0  0  0
   -0.1068    0.9108   -0.1694 C   0  0  0  0  0  0  0  0  0  0  0  0
   -0.5957    2.0154    0.4958 C   0  0  0  0  0  0  0  0  0  0  0  0
   -1.9964    1.9534    0.5667 C   0  0  0  0  0  0  0  0  0  0  0  0
   -2.6853    0.8621   -0.0016 C   0  0  0  0  0  0  0  0  0  0  0  0
   -2.6395   -1.0264   -1.0788 H   0  0  0  0  0  0  0  0  0  0  0  0
   -0.0099    2.8314    0.9154 H   0  0  0  0  0  0  0  0  0  0  0  0
   -2.5641    2.7404    1.0571 H   0  0  0  0  0  0  0  0  0  0  0  0
   -4.1629    0.8494    0.1030 N   0  0  0  0  0  0  0  0  0  0  0  0
   -4.7591   -0.1047   -0.3884 O   0  0  0  0  0  0  0  0  0  0  0  0
   -4.7079    1.7863    0.6824 O   0  0  0  0  0  0  0  0  0  0  0  0
    1.8885    1.0731   -0.2288 N   0  0  0  0  0  0  0  0  0  0  0  0
    2.7711    0.5234   -0.6122 N   0  0  0  0  0  0  0  0  0  0  0  0
  1  6  1  0  0  0  0
  2  1  2  0  0  0  0
  2  3  1  0  0  0  0
  3  4  2  0  0  0  0
  4  5  1  0  0  0  0
  4  8  1  0  0  0  0
  5  9  1  0  0  0  0
  6 10  1  0  0  0  0
  6  5  2  0  0  0  0
  7  1  1  0  0  0  0
 10 12  2  0  0  0  0
 11 10  2  0  0  0  0
 14 13  3  0  0  0  0
M  RAD  2   2   2   3   2
M  END
