Coordinates from ORCA-job 4-NO2-C6H3-N2-B3LYPG-aug-cc-pVDZ-scan-d09-49-n400
 OpenBabel11091809093D

 14 13  0  0  0  0  0  0  0  0999 V2000
   -2.3176   -0.2972   -0.6881 C   0  0  0  0  0  0  0  0  0  0  0  0
   -0.9374   -0.2103   -0.7437 C   0  0  0  0  0  0  0  0  0  0  0  0
   -0.2344    0.7125   -0.2727 C   0  0  0  0  0  0  0  0  0  0  0  0
   -0.6373    1.8520    0.4057 C   0  0  0  0  0  0  0  0  0  0  0  0
   -2.0415    1.8714    0.5235 C   0  0  0  0  0  0  0  0  0  0  0  0
   -2.8337    0.8316   -0.0073 C   0  0  0  0  0  0  0  0  0  0  0  0
   -2.9645   -1.0758   -1.0815 H   0  0  0  0  0  0  0  0  0  0  0  0
   -0.0017    2.6386    0.8045 H   0  0  0  0  0  0  0  0  0  0  0  0
   -2.5388    2.6960    1.0300 H   0  0  0  0  0  0  0  0  0  0  0  0
   -4.3019    0.9204    0.1547 N   0  0  0  0  0  0  0  0  0  0  0  0
   -4.9792    0.0065   -0.3086 O   0  0  0  0  0  0  0  0  0  0  0  0
   -4.7593    1.8940    0.7474 O   0  0  0  0  0  0  0  0  0  0  0  0
    2.7026    1.4162   -0.0963 N   0  0  0  0  0  0  0  0  0  0  0  0
    3.5642    0.8475   -0.4881 N   0  0  0  0  0  0  0  0  0  0  0  0
  1  6  1  0  0  0  0
  2  1  2  0  0  0  0
  2  3  1  0  0  0  0
  3  4  2  0  0  0  0
  4  5  1  0  0  0  0
  4  8  1  0  0  0  0
  5  9  1  0  0  0  0
  6 10  1  0  0  0  0
  6  5  2  0  0  0  0
  7  1  1  0  0  0  0
 10 12  2  0  0  0  0
 11 10  2  0  0  0  0
 14 13  3  0  0  0  0
M  RAD  2   2   2   3   2
M  END
