Coordinates from ORCA-job 4-NO2-C6H3-N2-B3LYPG-aug-cc-pVDZ-scan-d09-49-n400
 OpenBabel11091809093D

 14 13  0  0  0  0  0  0  0  0999 V2000
   -2.2043   -0.2614   -0.6758 C   0  0  0  0  0  0  0  0  0  0  0  0
   -0.8228   -0.1390   -0.7119 C   0  0  0  0  0  0  0  0  0  0  0  0
   -0.1812    0.8170   -0.2175 C   0  0  0  0  0  0  0  0  0  0  0  0
   -0.6247    1.9400    0.4551 C   0  0  0  0  0  0  0  0  0  0  0  0
   -2.0309    1.9110    0.5462 C   0  0  0  0  0  0  0  0  0  0  0  0
   -2.7744    0.8451   -0.0031 C   0  0  0  0  0  0  0  0  0  0  0  0
   -2.8179   -1.0600   -1.0830 H   0  0  0  0  0  0  0  0  0  0  0  0
   -0.0221    2.7458    0.8671 H   0  0  0  0  0  0  0  0  0  0  0  0
   -2.5663    2.7161    1.0449 H   0  0  0  0  0  0  0  0  0  0  0  0
   -4.2477    0.8830    0.1313 N   0  0  0  0  0  0  0  0  0  0  0  0
   -4.8848   -0.0498   -0.3506 O   0  0  0  0  0  0  0  0  0  0  0  0
   -4.7500    1.8408    0.7138 O   0  0  0  0  0  0  0  0  0  0  0  0
    2.3885    1.2376   -0.1751 N   0  0  0  0  0  0  0  0  0  0  0  0
    3.2581    0.6771   -0.5619 N   0  0  0  0  0  0  0  0  0  0  0  0
  1  6  1  0  0  0  0
  2  1  2  0  0  0  0
  2  3  1  0  0  0  0
  3  4  2  0  0  0  0
  4  5  1  0  0  0  0
  4  8  1  0  0  0  0
  5  9  1  0  0  0  0
  6 10  1  0  0  0  0
  6  5  2  0  0  0  0
  7  1  1  0  0  0  0
 10 12  2  0  0  0  0
 11 10  2  0  0  0  0
 14 13  3  0  0  0  0
M  RAD  2   2   2   3   2
M  END
