Coordinates from ORCA-job 4-NO2-C6H3-N2-B3LYPG-aug-cc-pVDZ-scan-d09-49-n400
 OpenBabel11091809093D

 14 13  0  0  0  0  0  0  0  0999 V2000
   -2.3700   -0.3142   -0.6929 C   0  0  0  0  0  0  0  0  0  0  0  0
   -0.9898   -0.2492   -0.7615 C   0  0  0  0  0  0  0  0  0  0  0  0
   -0.2621    0.6594   -0.3005 C   0  0  0  0  0  0  0  0  0  0  0  0
   -0.6412    1.8066    0.3806 C   0  0  0  0  0  0  0  0  0  0  0  0
   -2.0435    1.8507    0.5128 C   0  0  0  0  0  0  0  0  0  0  0  0
   -2.8591    0.8242   -0.0084 C   0  0  0  0  0  0  0  0  0  0  0  0
   -3.0339   -1.0821   -1.0787 H   0  0  0  0  0  0  0  0  0  0  0  0
    0.0112    2.5831    0.7721 H   0  0  0  0  0  0  0  0  0  0  0  0
   -2.5210    2.6844    1.0233 H   0  0  0  0  0  0  0  0  0  0  0  0
   -4.3240    0.9382    0.1684 N   0  0  0  0  0  0  0  0  0  0  0  0
   -5.0217    0.0378   -0.2907 O   0  0  0  0  0  0  0  0  0  0  0  0
   -4.7588    1.9224    0.7607 O   0  0  0  0  0  0  0  0  0  0  0  0
    2.8399    1.5097   -0.0546 N   0  0  0  0  0  0  0  0  0  0  0  0
    3.6935    0.9324   -0.4511 N   0  0  0  0  0  0  0  0  0  0  0  0
  1  6  1  0  0  0  0
  2  1  2  0  0  0  0
  2  3  1  0  0  0  0
  3  4  2  0  0  0  0
  4  5  1  0  0  0  0
  4  8  1  0  0  0  0
  5  9  1  0  0  0  0
  6 10  1  0  0  0  0
  6  5  2  0  0  0  0
  7  1  1  0  0  0  0
 10 12  2  0  0  0  0
 11 10  2  0  0  0  0
 14 13  3  0  0  0  0
M  RAD  2   2   2   3   2
M  END
