Coordinates from ORCA-job 4-NO2-C6H3-N2-B3LYPG-aug-cc-pVDZ-scan-d09-49-n400
 OpenBabel11091809093D

 14 14  0  0  0  0  0  0  0  0999 V2000
   -1.9829   -0.2185   -0.6012 C   0  0  0  0  0  0  0  0  0  0  0  0
   -0.5639   -0.2843   -0.7615 C   0  0  0  0  0  0  0  0  0  0  0  0
    0.0469    0.8671   -0.1902 C   0  0  0  0  0  0  0  0  0  0  0  0
   -0.5613    1.9843    0.4689 C   0  0  0  0  0  0  0  0  0  0  0  0
   -1.9324    1.9719    0.5479 C   0  0  0  0  0  0  0  0  0  0  0  0
   -2.6153    0.8646   -0.0097 C   0  0  0  0  0  0  0  0  0  0  0  0
   -2.6043   -1.0395   -0.9606 H   0  0  0  0  0  0  0  0  0  0  0  0
    0.0294    2.7992    0.8890 H   0  0  0  0  0  0  0  0  0  0  0  0
   -2.4912    2.7718    1.0248 H   0  0  0  0  0  0  0  0  0  0  0  0
   -4.1030    0.8759    0.0843 N   0  0  0  0  0  0  0  0  0  0  0  0
   -4.7228    0.0640   -0.5917 O   0  0  0  0  0  0  0  0  0  0  0  0
   -4.6148    1.6952    0.8446 O   0  0  0  0  0  0  0  0  0  0  0  0
    1.3614    0.8839   -0.3204 N   0  0  0  0  0  0  0  0  0  0  0  0
    2.4738    0.8679   -0.4447 N   0  0  0  0  0  0  0  0  0  0  0  0
  1  6  1  0  0  0  0
  2  1  2  0  0  0  0
  2  3  1  0  0  0  0
  3  4  2  0  0  0  0
  4  5  1  0  0  0  0
  4  8  1  0  0  0  0
  5  9  1  0  0  0  0
  6 10  1  0  0  0  0
  6  5  2  0  0  0  0
  7  1  1  0  0  0  0
 10 12  2  0  0  0  0
 11 10  2  0  0  0  0
 13  3  1  0  0  0  0
 14 13  1  0  0  0  0
M  RAD  3   2   2  13   2  14   3
M  END
