Coordinates from ORCA-job 4-NO2-C6H3-N2-B3LYPG-aug-cc-pVDZ-scan-d09-49-n400
 OpenBabel11091809093D

 14 13  0  0  0  0  0  0  0  0999 V2000
   -2.4232   -0.3321   -0.6992 C   0  0  0  0  0  0  0  0  0  0  0  0
   -1.0432   -0.2933   -0.7825 C   0  0  0  0  0  0  0  0  0  0  0  0
   -0.2918    0.6008   -0.3316 C   0  0  0  0  0  0  0  0  0  0  0  0
   -0.6407    1.7564    0.3519 C   0  0  0  0  0  0  0  0  0  0  0  0
   -2.0406    1.8277    0.4993 C   0  0  0  0  0  0  0  0  0  0  0  0
   -2.8820    0.8168   -0.0110 C   0  0  0  0  0  0  0  0  0  0  0  0
   -3.1062   -1.0875   -1.0763 H   0  0  0  0  0  0  0  0  0  0  0  0
    0.0289    2.5219    0.7359 H   0  0  0  0  0  0  0  0  0  0  0  0
   -2.4960    2.6714    1.0136 H   0  0  0  0  0  0  0  0  0  0  0  0
   -4.3423    0.9599    0.1819 N   0  0  0  0  0  0  0  0  0  0  0  0
   -5.0625    0.0723   -0.2674 O   0  0  0  0  0  0  0  0  0  0  0  0
   -4.7510    1.9529    0.7779 O   0  0  0  0  0  0  0  0  0  0  0  0
    2.9574    1.6059   -0.0089 N   0  0  0  0  0  0  0  0  0  0  0  0
    3.8126    1.0303   -0.4041 N   0  0  0  0  0  0  0  0  0  0  0  0
  1  6  1  0  0  0  0
  2  1  2  0  0  0  0
  2  3  1  0  0  0  0
  3  4  2  0  0  0  0
  4  5  1  0  0  0  0
  4  8  1  0  0  0  0
  5  9  1  0  0  0  0
  6 10  1  0  0  0  0
  6  5  2  0  0  0  0
  7  1  1  0  0  0  0
 10 12  2  0  0  0  0
 11 10  2  0  0  0  0
 14 13  3  0  0  0  0
M  RAD  2   2   2   3   2
M  END
