Coordinates from ORCA-job 4-NO2-C6H3-N2-B3LYPG-aug-cc-pVDZ-scan-d09-49-n400
 OpenBabel11091809093D

 14 13  0  0  0  0  0  0  0  0999 V2000
   -2.5914   -0.3864   -0.7167 C   0  0  0  0  0  0  0  0  0  0  0  0
   -1.2163   -0.4424   -0.8535 C   0  0  0  0  0  0  0  0  0  0  0  0
   -0.3888    0.4001   -0.4377 C   0  0  0  0  0  0  0  0  0  0  0  0
   -0.6306    1.5801    0.2514 C   0  0  0  0  0  0  0  0  0  0  0  0
   -2.0158    1.7467    0.4518 C   0  0  0  0  0  0  0  0  0  0  0  0
   -2.9436    0.7939   -0.0189 C   0  0  0  0  0  0  0  0  0  0  0  0
   -3.3384   -1.0948   -1.0623 H   0  0  0  0  0  0  0  0  0  0  0  0
    0.1028    2.3007    0.6051 H   0  0  0  0  0  0  0  0  0  0  0  0
   -2.3926    2.6214    0.9778 H   0  0  0  0  0  0  0  0  0  0  0  0
   -4.3820    1.0374    0.2293 N   0  0  0  0  0  0  0  0  0  0  0  0
   -5.1782    0.2001   -0.1872 O   0  0  0  0  0  0  0  0  0  0  0  0
   -4.6986    2.0592    0.8326 O   0  0  0  0  0  0  0  0  0  0  0  0
    3.2151    1.8602    0.1157 N   0  0  0  0  0  0  0  0  0  0  0  0
    4.1779    1.4273   -0.2080 N   0  0  0  0  0  0  0  0  0  0  0  0
  1  6  1  0  0  0  0
  2  1  2  0  0  0  0
  2  3  1  0  0  0  0
  3  4  2  0  0  0  0
  4  5  1  0  0  0  0
  4  8  1  0  0  0  0
  5  9  1  0  0  0  0
  6 10  1  0  0  0  0
  6  5  2  0  0  0  0
  7  1  1  0  0  0  0
 10 12  2  0  0  0  0
 11 10  2  0  0  0  0
 14 13  3  0  0  0  0
M  RAD  2   2   2   3   2
M  END
