Coordinates from ORCA-job 4-NO2-C6H3-N2-B3LYPG-aug-cc-pVDZ-scan-d09-49-n400
 OpenBabel11091809093D

 14 13  0  0  0  0  0  0  0  0999 V2000
   -2.5276   -0.3658   -0.7101 C   0  0  0  0  0  0  0  0  0  0  0  0
   -1.1493   -0.3845   -0.8257 C   0  0  0  0  0  0  0  0  0  0  0  0
   -0.3517    0.4795   -0.3954 C   0  0  0  0  0  0  0  0  0  0  0  0
   -0.6368    1.6505    0.2918 C   0  0  0  0  0  0  0  0  0  0  0  0
   -2.0289    1.7795    0.4712 C   0  0  0  0  0  0  0  0  0  0  0  0
   -2.9228    0.8029   -0.0158 C   0  0  0  0  0  0  0  0  0  0  0  0
   -3.2496   -1.0934   -1.0686 H   0  0  0  0  0  0  0  0  0  0  0  0
    0.0720    2.3891    0.6576 H   0  0  0  0  0  0  0  0  0  0  0  0
   -2.4372    2.6426    0.9928 H   0  0  0  0  0  0  0  0  0  0  0  0
   -4.3710    1.0065    0.2102 N   0  0  0  0  0  0  0  0  0  0  0  0
   -5.1373    0.1480   -0.2190 O   0  0  0  0  0  0  0  0  0  0  0  0
   -4.7247    2.0172    0.8116 O   0  0  0  0  0  0  0  0  0  0  0  0
    3.1291    1.7590    0.0656 N   0  0  0  0  0  0  0  0  0  0  0  0
    4.0553    1.2722   -0.2869 N   0  0  0  0  0  0  0  0  0  0  0  0
  1  6  1  0  0  0  0
  2  1  2  0  0  0  0
  2  3  1  0  0  0  0
  3  4  2  0  0  0  0
  4  5  1  0  0  0  0
  4  8  1  0  0  0  0
  5  9  1  0  0  0  0
  6 10  1  0  0  0  0
  6  5  2  0  0  0  0
  7  1  1  0  0  0  0
 10 12  2  0  0  0  0
 11 10  2  0  0  0  0
 14 13  3  0  0  0  0
M  RAD  2   2   2   3   2
M  END
