Coordinates from ORCA-job 4-NO2-C6H3-N2-B3LYPG-aug-cc-pVDZ-scan-d09-49-n400
 OpenBabel11091809093D

 14 13  0  0  0  0  0  0  0  0999 V2000
   -2.0726   -0.2183   -0.6625 C   0  0  0  0  0  0  0  0  0  0  0  0
   -0.6817   -0.0955   -0.6981 C   0  0  0  0  0  0  0  0  0  0  0  0
   -0.1172    0.9049   -0.1722 C   0  0  0  0  0  0  0  0  0  0  0  0
   -0.6005    2.0114    0.4937 C   0  0  0  0  0  0  0  0  0  0  0  0
   -2.0027    1.9490    0.5645 C   0  0  0  0  0  0  0  0  0  0  0  0
   -2.6975    0.8601   -0.0020 C   0  0  0  0  0  0  0  0  0  0  0  0
   -2.6595   -1.0324   -1.0809 H   0  0  0  0  0  0  0  0  0  0  0  0
   -0.0153    2.8274    0.9133 H   0  0  0  0  0  0  0  0  0  0  0  0
   -2.5686    2.7372    1.0556 H   0  0  0  0  0  0  0  0  0  0  0  0
   -4.1744    0.8520    0.1052 N   0  0  0  0  0  0  0  0  0  0  0  0
   -4.7740   -0.1010   -0.3847 O   0  0  0  0  0  0  0  0  0  0  0  0
   -4.7159    1.7900    0.6858 O   0  0  0  0  0  0  0  0  0  0  0  0
    1.9666    1.0934   -0.2234 N   0  0  0  0  0  0  0  0  0  0  0  0
    2.8327    0.5253   -0.6150 N   0  0  0  0  0  0  0  0  0  0  0  0
  1  6  1  0  0  0  0
  2  1  2  0  0  0  0
  2  3  1  0  0  0  0
  3  4  2  0  0  0  0
  4  5  1  0  0  0  0
  4  8  1  0  0  0  0
  5  9  1  0  0  0  0
  6 10  1  0  0  0  0
  6  5  2  0  0  0  0
  7  1  1  0  0  0  0
 10 12  2  0  0  0  0
 11 10  2  0  0  0  0
 14 13  3  0  0  0  0
M  RAD  2   2   2   3   2
M  END
