Coordinates from ORCA-job 4-NO2-C6H3-N2-B3LYPG-aug-cc-pVDZ-scan-d09-49-n400
 OpenBabel11091809093D

 14 13  0  0  0  0  0  0  0  0999 V2000
   -2.6119   -0.3929   -0.7187 C   0  0  0  0  0  0  0  0  0  0  0  0
   -1.2381   -0.4614   -0.8626 C   0  0  0  0  0  0  0  0  0  0  0  0
   -0.4006    0.3737   -0.4518 C   0  0  0  0  0  0  0  0  0  0  0  0
   -0.6282    1.5563    0.2378 C   0  0  0  0  0  0  0  0  0  0  0  0
   -2.0108    1.7357    0.4453 C   0  0  0  0  0  0  0  0  0  0  0  0
   -2.9496    0.7911   -0.0200 C   0  0  0  0  0  0  0  0  0  0  0  0
   -3.3671   -1.0946   -1.0600 H   0  0  0  0  0  0  0  0  0  0  0  0
    0.1134    2.2705    0.5871 H   0  0  0  0  0  0  0  0  0  0  0  0
   -2.3768    2.6142    0.9726 H   0  0  0  0  0  0  0  0  0  0  0  0
   -4.3845    1.0478    0.2356 N   0  0  0  0  0  0  0  0  0  0  0  0
   -5.1905    0.2177   -0.1765 O   0  0  0  0  0  0  0  0  0  0  0  0
   -4.6886    2.0730    0.8395 O   0  0  0  0  0  0  0  0  0  0  0  0
    3.2395    1.8936    0.1326 N   0  0  0  0  0  0  0  0  0  0  0  0
    4.2132    1.4786   -0.1814 N   0  0  0  0  0  0  0  0  0  0  0  0
  1  6  1  0  0  0  0
  2  1  2  0  0  0  0
  2  3  1  0  0  0  0
  3  4  2  0  0  0  0
  4  5  1  0  0  0  0
  4  8  1  0  0  0  0
  5  9  1  0  0  0  0
  6 10  1  0  0  0  0
  6  5  2  0  0  0  0
  7  1  1  0  0  0  0
 10 12  2  0  0  0  0
 11 10  2  0  0  0  0
 14 13  3  0  0  0  0
M  RAD  2   2   2   3   2
M  END
