Coordinates from ORCA-job 4-NO2-C6H3-N2-B3LYPG-aug-cc-pVDZ-scan-d09-49-n400
 OpenBabel11091809093D

 14 13  0  0  0  0  0  0  0  0999 V2000
   -2.0621   -0.2154   -0.6605 C   0  0  0  0  0  0  0  0  0  0  0  0
   -0.6696   -0.0972   -0.6996 C   0  0  0  0  0  0  0  0  0  0  0  0
   -0.1112    0.9082   -0.1706 C   0  0  0  0  0  0  0  0  0  0  0  0
   -0.5973    2.0136    0.4951 C   0  0  0  0  0  0  0  0  0  0  0  0
   -1.9988    1.9508    0.5663 C   0  0  0  0  0  0  0  0  0  0  0  0
   -2.6905    0.8604   -0.0009 C   0  0  0  0  0  0  0  0  0  0  0  0
   -2.6484   -1.0302   -1.0790 H   0  0  0  0  0  0  0  0  0  0  0  0
   -0.0121    2.8299    0.9145 H   0  0  0  0  0  0  0  0  0  0  0  0
   -2.5657    2.7382    1.0572 H   0  0  0  0  0  0  0  0  0  0  0  0
   -4.1677    0.8496    0.1057 N   0  0  0  0  0  0  0  0  0  0  0  0
   -4.7658   -0.1016   -0.3892 O   0  0  0  0  0  0  0  0  0  0  0  0
   -4.7114    1.7893    0.6815 O   0  0  0  0  0  0  0  0  0  0  0  0
    1.9233    1.0839   -0.2265 N   0  0  0  0  0  0  0  0  0  0  0  0
    2.7968    0.5240   -0.6148 N   0  0  0  0  0  0  0  0  0  0  0  0
  1  6  1  0  0  0  0
  2  1  2  0  0  0  0
  2  3  1  0  0  0  0
  3  4  2  0  0  0  0
  4  5  1  0  0  0  0
  4  8  1  0  0  0  0
  5  9  1  0  0  0  0
  6 10  1  0  0  0  0
  6  5  2  0  0  0  0
  7  1  1  0  0  0  0
 10 12  2  0  0  0  0
 11 10  2  0  0  0  0
 14 13  3  0  0  0  0
M  RAD  2   2   2   3   2
M  END
