Coordinates from ORCA-job 4-NO2-C6H3-N2-B3LYPG-aug-cc-pVDZ-scan-d09-49-n400
 OpenBabel11091809093D

 14 14  0  0  0  0  0  0  0  0999 V2000
   -2.0017   -0.1885   -0.6506 C   0  0  0  0  0  0  0  0  0  0  0  0
   -0.5913   -0.1433   -0.7326 C   0  0  0  0  0  0  0  0  0  0  0  0
   -0.0715    0.9146   -0.1707 C   0  0  0  0  0  0  0  0  0  0  0  0
   -0.5875    2.0162    0.4952 C   0  0  0  0  0  0  0  0  0  0  0  0
   -1.9791    1.9674    0.5738 C   0  0  0  0  0  0  0  0  0  0  0  0
   -2.6514    0.8692    0.0005 C   0  0  0  0  0  0  0  0  0  0  0  0
   -2.5950   -1.0011   -1.0675 H   0  0  0  0  0  0  0  0  0  0  0  0
    0.0045    2.8302    0.9129 H   0  0  0  0  0  0  0  0  0  0  0  0
   -2.5479    2.7527    1.0638 H   0  0  0  0  0  0  0  0  0  0  0  0
   -4.1326    0.8465    0.1006 N   0  0  0  0  0  0  0  0  0  0  0  0
   -4.7233   -0.1080   -0.3944 O   0  0  0  0  0  0  0  0  0  0  0  0
   -4.6827    1.7824    0.6776 O   0  0  0  0  0  0  0  0  0  0  0  0
    1.6466    0.9875   -0.2604 N   0  0  0  0  0  0  0  0  0  0  0  0
    2.6324    0.5776   -0.5689 N   0  0  0  0  0  0  0  0  0  0  0  0
  1  6  1  0  0  0  0
  2  1  2  0  0  0  0
  2  3  1  0  0  0  0
  3  4  2  0  0  0  0
  4  5  1  0  0  0  0
  4  8  1  0  0  0  0
  5  9  1  0  0  0  0
  6 10  1  0  0  0  0
  6  5  2  0  0  0  0
  7  1  1  0  0  0  0
 10 12  2  0  0  0  0
 11 10  2  0  0  0  0
 13  3  1  0  0  0  0
 14 13  2  0  0  0  0
M  RAD  2   2   2  14   2
M  END
