Coordinates from ORCA-job 4-NO2-C6H3-N2-B3LYPG-aug-cc-pVDZ-scan-d09-49-n400
 OpenBabel11091809093D

 14 13  0  0  0  0  0  0  0  0999 V2000
   -2.3488   -0.3074   -0.6907 C   0  0  0  0  0  0  0  0  0  0  0  0
   -0.9687   -0.2329   -0.7538 C   0  0  0  0  0  0  0  0  0  0  0  0
   -0.2506    0.6814   -0.2890 C   0  0  0  0  0  0  0  0  0  0  0  0
   -0.6400    1.8254    0.3911 C   0  0  0  0  0  0  0  0  0  0  0  0
   -2.0432    1.8591    0.5176 C   0  0  0  0  0  0  0  0  0  0  0  0
   -2.8491    0.8270   -0.0075 C   0  0  0  0  0  0  0  0  0  0  0  0
   -3.0056   -1.0798   -1.0796 H   0  0  0  0  0  0  0  0  0  0  0  0
    0.0055    2.6060    0.7856 H   0  0  0  0  0  0  0  0  0  0  0  0
   -2.5288    2.6890    1.0265 H   0  0  0  0  0  0  0  0  0  0  0  0
   -4.3154    0.9304    0.1634 N   0  0  0  0  0  0  0  0  0  0  0  0
   -5.0048    0.0253   -0.2992 O   0  0  0  0  0  0  0  0  0  0  0  0
   -4.7598    1.9111    0.7543 O   0  0  0  0  0  0  0  0  0  0  0  0
    2.7864    1.4718   -0.0720 N   0  0  0  0  0  0  0  0  0  0  0  0
    3.6423    0.8971   -0.4672 N   0  0  0  0  0  0  0  0  0  0  0  0
  1  6  1  0  0  0  0
  2  1  2  0  0  0  0
  2  3  1  0  0  0  0
  3  4  2  0  0  0  0
  4  5  1  0  0  0  0
  4  8  1  0  0  0  0
  5  9  1  0  0  0  0
  6 10  1  0  0  0  0
  6  5  2  0  0  0  0
  7  1  1  0  0  0  0
 10 12  2  0  0  0  0
 11 10  2  0  0  0  0
 14 13  3  0  0  0  0
M  RAD  2   2   2   3   2
M  END
