Coordinates from ORCA-job 4-NO2-C6H3-N2-B3LYPG-aug-cc-pVDZ-scan-d09-49-n400
 OpenBabel11091809093D

 14 13  0  0  0  0  0  0  0  0999 V2000
   -2.0435   -0.2084   -0.6579 C   0  0  0  0  0  0  0  0  0  0  0  0
   -0.6470   -0.1031   -0.7045 C   0  0  0  0  0  0  0  0  0  0  0  0
   -0.1005    0.9131   -0.1685 C   0  0  0  0  0  0  0  0  0  0  0  0
   -0.5930    2.0168    0.4966 C   0  0  0  0  0  0  0  0  0  0  0  0
   -1.9926    1.9553    0.5684 C   0  0  0  0  0  0  0  0  0  0  0  0
   -2.6787    0.8626   -0.0005 C   0  0  0  0  0  0  0  0  0  0  0  0
   -2.6294   -1.0237   -1.0767 H   0  0  0  0  0  0  0  0  0  0  0  0
   -0.0067    2.8328    0.9159 H   0  0  0  0  0  0  0  0  0  0  0  0
   -2.5610    2.7416    1.0588 H   0  0  0  0  0  0  0  0  0  0  0  0
   -4.1566    0.8474    0.1036 N   0  0  0  0  0  0  0  0  0  0  0  0
   -4.7516   -0.1050   -0.3922 O   0  0  0  0  0  0  0  0  0  0  0  0
   -4.7034    1.7858    0.6788 O   0  0  0  0  0  0  0  0  0  0  0  0
    1.8453    1.0631   -0.2322 N   0  0  0  0  0  0  0  0  0  0  0  0
    2.7383    0.5250   -0.6100 N   0  0  0  0  0  0  0  0  0  0  0  0
  1  6  1  0  0  0  0
  2  1  2  0  0  0  0
  2  3  1  0  0  0  0
  3  4  2  0  0  0  0
  4  5  1  0  0  0  0
  4  8  1  0  0  0  0
  5  9  1  0  0  0  0
  6 10  1  0  0  0  0
  6  5  2  0  0  0  0
  7  1  1  0  0  0  0
 10 12  2  0  0  0  0
 11 10  2  0  0  0  0
 14 13  3  0  0  0  0
M  RAD  2   2   2   3   2
M  END
