Coordinates from ORCA-job 4-NO2-C6H3-N2-B3LYPG-aug-cc-pVDZ-scan-d09-49-n400
 OpenBabel11091809093D

 14 13  0  0  0  0  0  0  0  0999 V2000
   -2.3021   -0.2926   -0.6854 C   0  0  0  0  0  0  0  0  0  0  0  0
   -0.9220   -0.1991   -0.7380 C   0  0  0  0  0  0  0  0  0  0  0  0
   -0.2261    0.7278   -0.2644 C   0  0  0  0  0  0  0  0  0  0  0  0
   -0.6363    1.8647    0.4135 C   0  0  0  0  0  0  0  0  0  0  0  0
   -2.0408    1.8768    0.5280 C   0  0  0  0  0  0  0  0  0  0  0  0
   -2.8260    0.8329   -0.0053 C   0  0  0  0  0  0  0  0  0  0  0  0
   -2.9439   -1.0744   -1.0807 H   0  0  0  0  0  0  0  0  0  0  0  0
   -0.0054    2.6542    0.8140 H   0  0  0  0  0  0  0  0  0  0  0  0
   -2.5436    2.6984    1.0336 H   0  0  0  0  0  0  0  0  0  0  0  0
   -4.2951    0.9137    0.1533 N   0  0  0  0  0  0  0  0  0  0  0  0
   -4.9668   -0.0001   -0.3181 O   0  0  0  0  0  0  0  0  0  0  0  0
   -4.7595    1.8879    0.7395 O   0  0  0  0  0  0  0  0  0  0  0  0
    2.6604    1.3883   -0.1104 N   0  0  0  0  0  0  0  0  0  0  0  0
    3.5266    0.8251   -0.5000 N   0  0  0  0  0  0  0  0  0  0  0  0
  1  6  1  0  0  0  0
  2  1  2  0  0  0  0
  2  3  1  0  0  0  0
  3  4  2  0  0  0  0
  4  5  1  0  0  0  0
  4  8  1  0  0  0  0
  5  9  1  0  0  0  0
  6 10  1  0  0  0  0
  6  5  2  0  0  0  0
  7  1  1  0  0  0  0
 10 12  2  0  0  0  0
 11 10  2  0  0  0  0
 14 13  3  0  0  0  0
M  RAD  2   2   2   3   2
M  END
