Coordinates from ORCA-job 4-NO2-C6H3-N2-B3LYPG-aug-cc-pVDZ-scan-d09-49-n400
 OpenBabel11091809093D

 14 14  0  0  0  0  0  0  0  0999 V2000
   -2.0353   -0.2041   -0.6574 C   0  0  0  0  0  0  0  0  0  0  0  0
   -0.6367   -0.1072   -0.7081 C   0  0  0  0  0  0  0  0  0  0  0  0
   -0.0955    0.9149   -0.1681 C   0  0  0  0  0  0  0  0  0  0  0  0
   -0.5919    2.0177    0.4967 C   0  0  0  0  0  0  0  0  0  0  0  0
   -1.9905    1.9580    0.5686 C   0  0  0  0  0  0  0  0  0  0  0  0
   -2.6738    0.8646   -0.0015 C   0  0  0  0  0  0  0  0  0  0  0  0
   -2.6216   -1.0192   -1.0766 H   0  0  0  0  0  0  0  0  0  0  0  0
   -0.0048    2.8334    0.9160 H   0  0  0  0  0  0  0  0  0  0  0  0
   -2.5593    2.7441    1.0586 H   0  0  0  0  0  0  0  0  0  0  0  0
   -4.1522    0.8479    0.1007 N   0  0  0  0  0  0  0  0  0  0  0  0
   -4.7455   -0.1080   -0.3903 O   0  0  0  0  0  0  0  0  0  0  0  0
   -4.6999    1.7827    0.6809 O   0  0  0  0  0  0  0  0  0  0  0  0
    1.8109    1.0517   -0.2349 N   0  0  0  0  0  0  0  0  0  0  0  0
    2.7156    0.5270   -0.6051 N   0  0  0  0  0  0  0  0  0  0  0  0
  1  6  1  0  0  0  0
  2  1  2  0  0  0  0
  2  3  1  0  0  0  0
  3  4  2  0  0  0  0
  4  5  1  0  0  0  0
  4  8  1  0  0  0  0
  5  9  1  0  0  0  0
  6 10  1  0  0  0  0
  6  5  2  0  0  0  0
  7  1  1  0  0  0  0
 10 12  2  0  0  0  0
 11 10  2  0  0  0  0
 13  3  1  0  0  0  0
 14 13  2  0  0  0  0
M  RAD  2   2   2  14   2
M  END
