Coordinates from ORCA-job 4-NO2-C6H3-N2-B3LYPG-aug-cc-pVDZ-scan-d09-49-n400
 OpenBabel11091809093D

 14 14  0  0  0  0  0  0  0  0999 V2000
   -1.9766   -0.2364   -0.5664 C   0  0  0  0  0  0  0  0  0  0  0  0
   -0.5656   -0.3030   -0.7594 C   0  0  0  0  0  0  0  0  0  0  0  0
    0.0938    0.8623   -0.1924 C   0  0  0  0  0  0  0  0  0  0  0  0
   -0.5513    1.9675    0.4820 C   0  0  0  0  0  0  0  0  0  0  0  0
   -1.9190    1.9680    0.5457 C   0  0  0  0  0  0  0  0  0  0  0  0
   -2.6086    0.8647   -0.0117 C   0  0  0  0  0  0  0  0  0  0  0  0
   -2.5960   -1.0727   -0.8935 H   0  0  0  0  0  0  0  0  0  0  0  0
    0.0407    2.7692    0.9255 H   0  0  0  0  0  0  0  0  0  0  0  0
   -2.4737    2.7720    1.0213 H   0  0  0  0  0  0  0  0  0  0  0  0
   -4.0948    0.8916    0.0581 N   0  0  0  0  0  0  0  0  0  0  0  0
   -4.7112    0.1108   -0.6567 O   0  0  0  0  0  0  0  0  0  0  0  0
   -4.6075    1.6868    0.8433 O   0  0  0  0  0  0  0  0  0  0  0  0
    1.2853    0.9024   -0.3356 N   0  0  0  0  0  0  0  0  0  0  0  0
    2.4038    0.9200   -0.4809 N   0  0  0  0  0  0  0  0  0  0  0  0
  1  6  1  0  0  0  0
  2  1  2  0  0  0  0
  2  3  1  0  0  0  0
  3  4  2  0  0  0  0
  4  5  1  0  0  0  0
  4  8  1  0  0  0  0
  5  9  1  0  0  0  0
  6 10  1  0  0  0  0
  6  5  2  0  0  0  0
  7  1  1  0  0  0  0
 10 12  2  0  0  0  0
 11 10  2  0  0  0  0
 13  3  1  0  0  0  0
 14 13  1  0  0  0  0
M  RAD  3   2   2  13   2  14   3
M  END
