Coordinates from ORCA-job 4-NO2-C6H3-N2-B3LYPG-aug-cc-pVDZ-scan-d09-49-n400
 OpenBabel11091809093D

 14 13  0  0  0  0  0  0  0  0999 V2000
   -2.2443   -0.2737   -0.6796 C   0  0  0  0  0  0  0  0  0  0  0  0
   -0.8635   -0.1615   -0.7215 C   0  0  0  0  0  0  0  0  0  0  0  0
   -0.1984    0.7821   -0.2358 C   0  0  0  0  0  0  0  0  0  0  0  0
   -0.6306    1.9107    0.4389 C   0  0  0  0  0  0  0  0  0  0  0  0
   -2.0362    1.8980    0.5391 C   0  0  0  0  0  0  0  0  0  0  0  0
   -2.7962    0.8406   -0.0039 C   0  0  0  0  0  0  0  0  0  0  0  0
   -2.8689   -1.0658   -1.0823 H   0  0  0  0  0  0  0  0  0  0  0  0
   -0.0171    2.7102    0.8466 H   0  0  0  0  0  0  0  0  0  0  0  0
   -2.5588    2.7097    1.0406 H   0  0  0  0  0  0  0  0  0  0  0  0
   -4.2681    0.8953    0.1397 N   0  0  0  0  0  0  0  0  0  0  0  0
   -4.9187   -0.0308   -0.3373 O   0  0  0  0  0  0  0  0  0  0  0  0
   -4.7557    1.8592    0.7245 O   0  0  0  0  0  0  0  0  0  0  0  0
    2.4979    1.2883   -0.1544 N   0  0  0  0  0  0  0  0  0  0  0  0
    3.3783    0.7412   -0.5353 N   0  0  0  0  0  0  0  0  0  0  0  0
  1  6  1  0  0  0  0
  2  1  2  0  0  0  0
  2  3  1  0  0  0  0
  3  4  2  0  0  0  0
  4  5  1  0  0  0  0
  4  8  1  0  0  0  0
  5  9  1  0  0  0  0
  6 10  1  0  0  0  0
  6  5  2  0  0  0  0
  7  1  1  0  0  0  0
 10 12  2  0  0  0  0
 11 10  2  0  0  0  0
 14 13  3  0  0  0  0
M  RAD  2   2   2   3   2
M  END
