Coordinates from ORCA-job 4-NO2-C6H3-N2-B3LYPG-aug-cc-pVDZ-scan-d09-49-n400
 OpenBabel11091809093D

 14 14  0  0  0  0  0  0  0  0999 V2000
   -1.9881   -0.1924   -0.6406 C   0  0  0  0  0  0  0  0  0  0  0  0
   -0.5662   -0.2319   -0.7721 C   0  0  0  0  0  0  0  0  0  0  0  0
   -0.0182    0.8858   -0.1883 C   0  0  0  0  0  0  0  0  0  0  0  0
   -0.5745    1.9983    0.4772 C   0  0  0  0  0  0  0  0  0  0  0  0
   -1.9536    1.9703    0.5658 C   0  0  0  0  0  0  0  0  0  0  0  0
   -2.6283    0.8668   -0.0031 C   0  0  0  0  0  0  0  0  0  0  0  0
   -2.6040   -0.9980   -1.0405 H   0  0  0  0  0  0  0  0  0  0  0  0
    0.0192    2.8137    0.8903 H   0  0  0  0  0  0  0  0  0  0  0  0
   -2.5162    2.7609    1.0532 H   0  0  0  0  0  0  0  0  0  0  0  0
   -4.1152    0.8583    0.1041 N   0  0  0  0  0  0  0  0  0  0  0  0
   -4.7225   -0.0557   -0.4412 O   0  0  0  0  0  0  0  0  0  0  0  0
   -4.6451    1.7701    0.7359 O   0  0  0  0  0  0  0  0  0  0  0  0
    1.4687    0.8914   -0.3042 N   0  0  0  0  0  0  0  0  0  0  0  0
    2.5634    0.7659   -0.4571 N   0  0  0  0  0  0  0  0  0  0  0  0
  1  6  1  0  0  0  0
  2  1  2  0  0  0  0
  2  3  1  0  0  0  0
  3  4  2  0  0  0  0
  4  5  1  0  0  0  0
  4  8  1  0  0  0  0
  5  9  1  0  0  0  0
  6 10  1  0  0  0  0
  6  5  2  0  0  0  0
  7  1  1  0  0  0  0
 10 12  2  0  0  0  0
 11 10  2  0  0  0  0
 13  3  1  0  0  0  0
 14 13  1  0  0  0  0
M  RAD  3   2   2  13   2  14   3
M  END
