Coordinates from ORCA-job 4-NO2-C6H3-N2-B3LYPG-aug-cc-pVDZ-scan-d09-49-n400
 OpenBabel11091809093D

 14 14  0  0  0  0  0  0  0  0999 V2000
   -1.9951   -0.1853   -0.6504 C   0  0  0  0  0  0  0  0  0  0  0  0
   -0.5816   -0.1566   -0.7414 C   0  0  0  0  0  0  0  0  0  0  0  0
   -0.0630    0.9124   -0.1727 C   0  0  0  0  0  0  0  0  0  0  0  0
   -0.5860    2.0148    0.4939 C   0  0  0  0  0  0  0  0  0  0  0  0
   -1.9754    1.9696    0.5738 C   0  0  0  0  0  0  0  0  0  0  0  0
   -2.6458    0.8705   -0.0005 C   0  0  0  0  0  0  0  0  0  0  0  0
   -2.5920   -0.9961   -1.0662 H   0  0  0  0  0  0  0  0  0  0  0  0
    0.0065    2.8285    0.9118 H   0  0  0  0  0  0  0  0  0  0  0  0
   -2.5442    2.7549    1.0636 H   0  0  0  0  0  0  0  0  0  0  0  0
   -4.1281    0.8483    0.0992 N   0  0  0  0  0  0  0  0  0  0  0  0
   -4.7189   -0.1079   -0.3917 O   0  0  0  0  0  0  0  0  0  0  0  0
   -4.6770    1.7823    0.6804 O   0  0  0  0  0  0  0  0  0  0  0  0
    1.6053    0.9678   -0.2676 N   0  0  0  0  0  0  0  0  0  0  0  0
    2.6149    0.6002   -0.5528 N   0  0  0  0  0  0  0  0  0  0  0  0
  1  6  1  0  0  0  0
  2  1  2  0  0  0  0
  2  3  1  0  0  0  0
  3  4  2  0  0  0  0
  4  5  1  0  0  0  0
  4  8  1  0  0  0  0
  5  9  1  0  0  0  0
  6 10  1  0  0  0  0
  6  5  2  0  0  0  0
  7  1  1  0  0  0  0
 10 12  2  0  0  0  0
 11 10  2  0  0  0  0
 13  3  1  0  0  0  0
 14 13  1  0  0  0  0
M  RAD  3   2   2  13   2  14   3
M  END
