Coordinates from ORCA-job 4-NO2-C6H3-N2-B3LYPG-aug-cc-pVDZ-scan-d09-49-n400
 OpenBabel11091809093D

 14 13  0  0  0  0  0  0  0  0999 V2000
   -2.4981   -0.3566   -0.7071 C   0  0  0  0  0  0  0  0  0  0  0  0
   -1.1190   -0.3587   -0.8135 C   0  0  0  0  0  0  0  0  0  0  0  0
   -0.3351    0.5145   -0.3769 C   0  0  0  0  0  0  0  0  0  0  0  0
   -0.6379    1.6814    0.3094 C   0  0  0  0  0  0  0  0  0  0  0  0
   -2.0327    1.7935    0.4794 C   0  0  0  0  0  0  0  0  0  0  0  0
   -2.9117    0.8067   -0.0144 C   0  0  0  0  0  0  0  0  0  0  0  0
   -3.2091   -1.0923   -1.0710 H   0  0  0  0  0  0  0  0  0  0  0  0
    0.0591    2.4284    0.6808 H   0  0  0  0  0  0  0  0  0  0  0  0
   -2.4549    2.6511    0.9990 H   0  0  0  0  0  0  0  0  0  0  0  0
   -4.3638    0.9930    0.2021 N   0  0  0  0  0  0  0  0  0  0  0  0
   -5.1170    0.1260   -0.2331 O   0  0  0  0  0  0  0  0  0  0  0  0
   -4.7334    1.9989    0.8020 O   0  0  0  0  0  0  0  0  0  0  0  0
    3.0828    1.7147    0.0439 N   0  0  0  0  0  0  0  0  0  0  0  0
    3.9904    1.2027   -0.3211 N   0  0  0  0  0  0  0  0  0  0  0  0
  1  6  1  0  0  0  0
  2  1  2  0  0  0  0
  2  3  1  0  0  0  0
  3  4  2  0  0  0  0
  4  5  1  0  0  0  0
  4  8  1  0  0  0  0
  5  9  1  0  0  0  0
  6 10  1  0  0  0  0
  6  5  2  0  0  0  0
  7  1  1  0  0  0  0
 10 12  2  0  0  0  0
 11 10  2  0  0  0  0
 14 13  3  0  0  0  0
M  RAD  2   2   2   3   2
M  END
