1,2-(CH3)2-C2H3-N2+-UB3LYP-aug-cc-pVDZ-Singlet.log
 OpenBabel04131813123D
Gaussian home/ubuntu/g09/g09 #p Temperature=298.15 opt freq UB3LYP/aug-cc-pVDZ
 15 13  0  0  0  0  0  0  0  0999 V2000
    1.2046    0.0015    0.0074 C   0  0  0  0  0  0  0  0  0  0  0  0
   -2.2406   -0.0012   -0.0691 N   0  0  0  0  0  0  0  0  0  0  0  0
   -3.3417   -0.0033    0.0107 N   0  0  0  0  0  0  0  0  0  0  0  0
    1.2371   -1.2553   -0.7420 C   0  0  0  0  0  0  0  0  0  0  0  0
    1.6834   -1.1718   -1.7379 H   0  0  0  0  0  0  0  0  0  0  0  0
    1.6524   -2.0870   -0.1579 H   0  0  0  0  0  0  0  0  0  0  0  0
    0.1605   -1.5054   -0.8796 H   0  0  0  0  0  0  0  0  0  0  0  0
    1.1069   -0.0285    1.4669 C   0  0  0  0  0  0  0  0  0  0  0  0
    2.1718   -0.0082    1.7956 H   0  0  0  0  0  0  0  0  0  0  0  0
    0.6422    0.8698    1.8908 H   0  0  0  0  0  0  0  0  0  0  0  0
    0.6801   -0.9587    1.8596 H   0  0  0  0  0  0  0  0  0  0  0  0
    1.2251    1.2873   -0.6909 C   0  0  0  0  0  0  0  0  0  0  0  0
    1.7208    1.2548   -1.6669 H   0  0  0  0  0  0  0  0  0  0  0  0
    0.1471    1.4932   -0.8830 H   0  0  0  0  0  0  0  0  0  0  0  0
    1.5762    2.1140   -0.0608 H   0  0  0  0  0  0  0  0  0  0  0  0
  1  8  1  0  0  0  0
  2  3  3  0  0  0  0
  4  6  1  0  0  0  0
  4  1  1  0  0  0  0
  5  4  1  0  0  0  0
  7  4  1  0  0  0  0
  8  9  1  0  0  0  0
  8 11  1  0  0  0  0
  8 10  1  0  0  0  0
 12 15  1  0  0  0  0
 12  1  1  0  0  0  0
 13 12  1  0  0  0  0
 14 12  1  0  0  0  0
M  RAD  1   1   2
M  END
