1,2,4-Triazine-5-N2+-UB3LYP-aug-cc-pVDZ-Triplet.log
 OpenBabel04131813123D
Gaussian home/ubuntu/g09/g09 #p Temperature=298.15 opt freq UB3LYP/aug-cc-pVDZ
 10 10  0  0  0  0  0  0  0  0999 V2000
    0.5286   -0.0073   -0.0001 C   0  0  0  0  0  0  0  0  0  0  0  0
   -0.1591    1.2603   -0.0000 C   0  0  0  0  0  0  0  0  0  0  0  0
    1.8728   -0.0514    0.0001 N   0  0  0  0  0  0  0  0  0  0  0  0
    3.0077   -0.0811    0.0000 N   0  0  0  0  0  0  0  0  0  0  0  0
    0.3195    2.2387    0.0001 H   0  0  0  0  0  0  0  0  0  0  0  0
   -1.4529   -1.1547    0.0000 C   0  0  0  0  0  0  0  0  0  0  0  0
   -2.0657   -2.0531    0.0001 H   0  0  0  0  0  0  0  0  0  0  0  0
   -0.1508   -1.1885   -0.0001 N   0  0  0  0  0  0  0  0  0  0  0  0
   -2.0908    0.0667    0.0000 N   0  0  0  0  0  0  0  0  0  0  0  0
   -1.4608    1.1435   -0.0000 N   0  0  0  0  0  0  0  0  0  0  0  0
  1  8  2  0  0  0  0
  1  2  1  0  0  0  0
  1  3  1  0  0  0  0
  2 10  2  0  0  0  0
  2  5  1  0  0  0  0
  4  3  1  0  0  0  0
  6  9  2  0  0  0  0
  6  7  1  0  0  0  0
  8  6  1  0  0  0  0
 10  9  1  0  0  0  0
M  RAD  2   3   2   4   3
M  END
