1,2,4-Triazine-6-N2+-UB3LYP-aug-cc-pVDZ-Singlet.log
 OpenBabel04131813123D
Gaussian home/ubuntu/g09/g09 #p Temperature=298.15 opt freq UB3LYP/aug-cc-pVDZ
 10 10  0  0  0  0  0  0  0  0999 V2000
    0.4926    0.0213   -0.0003 C   0  0  0  0  0  0  0  0  0  0  0  0
   -0.2044    1.2381   -0.0003 C   0  0  0  0  0  0  0  0  0  0  0  0
    1.8959   -0.0077    0.0000 N   0  0  0  0  0  0  0  0  0  0  0  0
    3.0060   -0.0251    0.0003 N   0  0  0  0  0  0  0  0  0  0  0  0
    0.2782    2.2186    0.0002 H   0  0  0  0  0  0  0  0  0  0  0  0
   -0.0688   -1.1997   -0.0001 N   0  0  0  0  0  0  0  0  0  0  0  0
   -1.5292    1.1600    0.0001 N   0  0  0  0  0  0  0  0  0  0  0  0
   -1.3758   -1.2431    0.0000 N   0  0  0  0  0  0  0  0  0  0  0  0
   -2.0597   -0.0677    0.0002 C   0  0  0  0  0  0  0  0  0  0  0  0
   -3.1462   -0.1591    0.0004 H   0  0  0  0  0  0  0  0  0  0  0  0
  1  6  1  0  0  0  0
  1  3  1  0  0  0  0
  2  1  2  0  0  0  0
  2  7  1  0  0  0  0
  2  5  1  0  0  0  0
  3  4  1  0  0  0  0
  6  8  2  0  0  0  0
  7  9  2  0  0  0  0
  8  9  1  0  0  0  0
  9 10  1  0  0  0  0
M  RAD  2   3   2   4   3
M  END
