1,2,4-Triazine-6+-UB3LYP-aug-cc-pVDZ-Triplet.log
 OpenBabel04131813123D
Gaussian home/ubuntu/g09/g09 #p Temperature=298.15 opt freq UB3LYP/aug-cc-pVDZ
  8  8  0  0  0  0  0  0  0  0999 V2000
   -0.5067   -1.2838    0.0004 C   0  0  0  0  0  0  0  0  0  0  0  0
   -1.3393   -0.1407   -0.0007 C   0  0  0  0  0  0  0  0  0  0  0  0
   -2.4304   -0.2211    0.0014 H   0  0  0  0  0  0  0  0  0  0  0  0
    0.7988   -1.1319   -0.0001 N   0  0  0  0  0  0  0  0  0  0  0  0
   -0.7696    1.0518    0.0000 N   0  0  0  0  0  0  0  0  0  0  0  0
    1.2703    0.0273   -0.0000 N   0  0  0  0  0  0  0  0  0  0  0  0
    0.5563    1.1686    0.0001 C   0  0  0  0  0  0  0  0  0  0  0  0
    1.0723    2.1268    0.0005 H   0  0  0  0  0  0  0  0  0  0  0  0
  2  5  2  0  0  0  0
  2  1  1  0  0  0  0
  2  3  1  0  0  0  0
  4  6  1  0  0  0  0
  4  1  2  0  0  0  0
  5  7  1  0  0  0  0
  6  7  2  0  0  0  0
  7  8  1  0  0  0  0
M  RAD  1   1   2
M  END
