1H-1,2,3-Triazole-5-N2-UB3LYP-aug-cc-pVDZ-Doublet.log
 OpenBabel04131813123D
Gaussian home/ubuntu/g09/g09 #p Temperature=298.15 opt=(maxcycles=1024) SCF=(max
  9  9  0  0  0  0  0  0  0  0999 V2000
    1.6965   -0.4599    0.0006 N   0  0  0  0  0  0  0  0  0  0  0  0
    2.6064    0.3079   -0.0005 N   0  0  0  0  0  0  0  0  0  0  0  0
    0.3314   -0.0811    0.0001 C   0  0  0  0  0  0  0  0  0  0  0  0
   -0.3789    1.1082    0.0002 C   0  0  0  0  0  0  0  0  0  0  0  0
   -0.0141    2.1281    0.0003 H   0  0  0  0  0  0  0  0  0  0  0  0
   -0.6297   -1.0423    0.0000 N   0  0  0  0  0  0  0  0  0  0  0  0
   -0.5095   -2.0483   -0.0004 H   0  0  0  0  0  0  0  0  0  0  0  0
   -1.8538   -0.5017   -0.0002 N   0  0  0  0  0  0  0  0  0  0  0  0
   -1.7039    0.8043   -0.0000 N   0  0  0  0  0  0  0  0  0  0  0  0
  2  1  2  0  0  0  0
  3  4  2  0  0  0  0
  3  1  1  0  0  0  0
  4  5  1  0  0  0  0
  6  3  1  0  0  0  0
  7  6  1  0  0  0  0
  8  9  2  0  0  0  0
  8  6  1  0  0  0  0
  9  4  1  0  0  0  0
M  RAD  1   2   2
M  END
