1H-1,2,3-Triazole-5+-UB3LYP-aug-cc-pVDZ-Triplet.log
 OpenBabel04131813123D
Gaussian home/ubuntu/g09/g09 #p Temperature=298.15 opt=(maxcycles=1024) SCF=(max
  7  6  0  0  0  0  0  0  0  0999 V2000
   -1.0058    0.2528   -0.0095 C   0  0  0  0  0  0  0  0  0  0  0  0
    0.2254    0.9287   -0.0021 C   0  0  0  0  0  0  0  0  0  0  0  0
    0.2666    2.0177   -0.0052 H   0  0  0  0  0  0  0  0  0  0  0  0
   -1.9627   -0.3966    0.0038 N   0  0  0  0  0  0  0  0  0  0  0  0
   -2.8031   -0.9669    0.0154 H   0  0  0  0  0  0  0  0  0  0  0  0
    1.5447   -0.9788   -0.0066 N   0  0  0  0  0  0  0  0  0  0  0  0
    1.4493    0.2126    0.0112 N   0  0  0  0  0  0  0  0  0  0  0  0
  1  2  1  0  0  0  0
  1  4  1  0  0  0  0
  2  7  2  0  0  0  0
  3  2  1  0  0  0  0
  4  5  1  0  0  0  0
  6  7  1  0  0  0  0
M  RAD  3   1   3   4   2   6   3
M  END
