1H-1,2,3-Triazole-4-UB3LYP-aug-cc-pVDZ-Doublet.log
 OpenBabel04131813123D
Gaussian home/ubuntu/g09/g09 #p Temperature=298.15 opt=(maxcycles=1024) SCF=(max
  7  7  0  0  0  0  0  0  0  0999 V2000
   -0.1656   -1.1823   -0.0002 C   0  0  0  0  0  0  0  0  0  0  0  0
    0.6502    0.7795   -0.0002 N   0  0  0  0  0  0  0  0  0  0  0  0
    1.2164    1.6190   -0.0001 H   0  0  0  0  0  0  0  0  0  0  0  0
    1.0464   -0.5231    0.0002 C   0  0  0  0  0  0  0  0  0  0  0  0
    2.0786   -0.8457    0.0003 H   0  0  0  0  0  0  0  0  0  0  0  0
   -0.6939    0.9015    0.0001 N   0  0  0  0  0  0  0  0  0  0  0  0
   -1.1820   -0.3298    0.0000 N   0  0  0  0  0  0  0  0  0  0  0  0
  1  7  1  0  0  0  0
  1  4  2  0  0  0  0
  2  3  1  0  0  0  0
  2  6  1  0  0  0  0
  2  4  1  0  0  0  0
  4  5  1  0  0  0  0
  7  6  2  0  0  0  0
M  RAD  1   1   2
M  END
