2H-1,2,3-Triazole-4-N2+-UB3LYP-aug-cc-pVDZ-Triplet.log
 OpenBabel04131813133D
Gaussian home/ubuntu/g09/g09 #p Temperature=298.15 opt=(maxcycles=1024) SCF=(max
  9  9  0  0  0  0  0  0  0  0999 V2000
    1.6735   -0.0172    0.0279 N   0  0  0  0  0  0  0  0  0  0  0  0
    2.8105   -0.0889    0.0243 N   0  0  0  0  0  0  0  0  0  0  0  0
    0.3500    0.0511   -0.0048 C   0  0  0  0  0  0  0  0  0  0  0  0
   -0.5010    1.1576   -0.0191 C   0  0  0  0  0  0  0  0  0  0  0  0
   -0.2973    2.2249   -0.0363 H   0  0  0  0  0  0  0  0  0  0  0  0
   -1.7283   -0.6422    0.1998 N   0  0  0  0  0  0  0  0  0  0  0  0
   -2.5093   -1.1893   -0.1719 H   0  0  0  0  0  0  0  0  0  0  0  0
   -0.4633   -1.1156   -0.1501 N   0  0  0  0  0  0  0  0  0  0  0  0
   -1.7620    0.6800   -0.0516 N   0  0  0  0  0  0  0  0  0  0  0  0
  2  1  1  0  0  0  0
  3  1  1  0  0  0  0
  4  3  2  0  0  0  0
  5  4  1  0  0  0  0
  7  6  1  0  0  0  0
  8  3  1  0  0  0  0
  8  6  1  0  0  0  0
  9  4  1  0  0  0  0
  9  6  1  0  0  0  0
M  RAD  4   1   2   2   3   8   2   9   2
M  END
