4-NO2-Ph-N2+-RB3LYP-aug-cc-pVDZ-Singlet.log
 OpenBabel04131813133D
Gaussian home/ubuntu/g09/g09 #p Temperature=298.15 opt freq RB3LYP/aug-cc-pVDZ
 15 15  0  0  0  0  0  0  0  0999 V2000
   -0.3280   -1.2323   -0.0001 C   0  0  0  0  0  0  0  0  0  0  0  0
    1.0617   -1.2480   -0.0002 C   0  0  0  0  0  0  0  0  0  0  0  0
    1.7165    0.0000    0.0000 C   0  0  0  0  0  0  0  0  0  0  0  0
    1.0617    1.2480    0.0002 C   0  0  0  0  0  0  0  0  0  0  0  0
   -0.3280    1.2323    0.0001 C   0  0  0  0  0  0  0  0  0  0  0  0
   -0.9876    0.0000    0.0000 C   0  0  0  0  0  0  0  0  0  0  0  0
   -0.9051   -2.1549   -0.0002 H   0  0  0  0  0  0  0  0  0  0  0  0
    1.6228   -2.1811   -0.0003 H   0  0  0  0  0  0  0  0  0  0  0  0
    1.6228    2.1811    0.0003 H   0  0  0  0  0  0  0  0  0  0  0  0
   -0.9051    2.1549    0.0002 H   0  0  0  0  0  0  0  0  0  0  0  0
   -2.4858   -0.0000    0.0000 N   0  0  0  0  0  0  0  0  0  0  0  0
   -3.0296   -1.0929    0.0004 O   0  0  0  0  0  0  0  0  0  0  0  0
   -3.0296    1.0929   -0.0004 O   0  0  0  0  0  0  0  0  0  0  0  0
    3.1052    0.0000    0.0000 N   0  0  0  0  0  0  0  0  0  0  0  0
    4.2177   -0.0000   -0.0000 N   0  0  0  0  0  0  0  0  0  0  0  0
  1  6  1  0  0  0  0
  2  1  2  0  0  0  0
  2  3  1  0  0  0  0
  3  4  2  0  0  0  0
  4  9  1  0  0  0  0
  5  4  1  0  0  0  0
  5 10  1  0  0  0  0
  6  5  2  0  0  0  0
  7  1  1  0  0  0  0
  8  2  1  0  0  0  0
 11  6  1  0  0  0  0
 11 12  2  0  0  0  0
 13 11  2  0  0  0  0
 14  3  1  0  0  0  0
 15 14  1  0  0  0  0
M  RAD  2  14   2  15   3
M  END
