CH3-N2+-UB3LYP-aug-cc-pVDZ-Triplet.log
 OpenBabel04131813133D
Gaussian home/ubuntu/g09/g09 #p Temperature=298.15 opt freq UB3LYP/aug-cc-pVDZ
  6  5  0  0  0  0  0  0  0  0999 V2000
   -1.0659    0.0826    0.0024 C   0  0  0  0  0  0  0  0  0  0  0  0
   -1.5923   -0.1389   -0.9470 H   0  0  0  0  0  0  0  0  0  0  0  0
   -1.5871   -0.1406    0.9521 H   0  0  0  0  0  0  0  0  0  0  0  0
   -0.9665    1.2416   -0.0091 H   0  0  0  0  0  0  0  0  0  0  0  0
    0.2297   -0.4294   -0.0032 N   0  0  0  0  0  0  0  0  0  0  0  0
    1.2761    0.2211    0.0017 N   0  0  0  0  0  0  0  0  0  0  0  0
  1  3  1  0  0  0  0
  2  1  1  0  0  0  0
  4  1  1  0  0  0  0
  5  6  2  0  0  0  0
  5  1  1  0  0  0  0
M  RAD  1   6   2
M  END
