Imidazole-5+-UB3LYP-aug-cc-pVDZ-Singlet.log
 OpenBabel04131813133D
Gaussian home/ubuntu/g09/g09 #p Temperature=298.15 opt freq UB3LYP/aug-cc-pVDZ
  8  8  0  0  0  0  0  0  0  0999 V2000
   -0.2690   -0.9782    0.0104 C   0  0  0  0  0  0  0  0  0  0  0  0
   -1.3315   -0.1869   -0.0083 C   0  0  0  0  0  0  0  0  0  0  0  0
   -2.4127   -0.2309   -0.0049 H   0  0  0  0  0  0  0  0  0  0  0  0
    0.8220    0.7441   -0.0020 C   0  0  0  0  0  0  0  0  0  0  0  0
    1.5629    1.5365    0.0027 H   0  0  0  0  0  0  0  0  0  0  0  0
    1.0273   -0.5889   -0.0049 N   0  0  0  0  0  0  0  0  0  0  0  0
    1.8617   -1.1707   -0.0009 H   0  0  0  0  0  0  0  0  0  0  0  0
   -0.5045    0.9305    0.0052 N   0  0  0  0  0  0  0  0  0  0  0  0
  2  3  1  0  0  0  0
  2  8  1  0  0  0  0
  2  1  2  0  0  0  0
  4  5  1  0  0  0  0
  4  8  2  0  0  0  0
  6  4  1  0  0  0  0
  6  7  1  0  0  0  0
  6  1  1  0  0  0  0
M  RAD  1   1   2
M  END
