Pyrazole-3+-UB3LYP-aug-cc-pVDZ-Triplet.log
 OpenBabel04131813133D
Gaussian home/ubuntu/g09/g09 #p Temperature=298.15 opt freq UB3LYP/aug-cc-pVDZ
  8  8  0  0  0  0  0  0  0  0999 V2000
   -0.3050   -1.1682   -0.0005 C   0  0  0  0  0  0  0  0  0  0  0  0
   -1.2497   -0.1504    0.0005 C   0  0  0  0  0  0  0  0  0  0  0  0
   -2.3331   -0.2162    0.0006 H   0  0  0  0  0  0  0  0  0  0  0  0
    0.8959    0.5659    0.0003 N   0  0  0  0  0  0  0  0  0  0  0  0
    1.7308    1.1568    0.0004 H   0  0  0  0  0  0  0  0  0  0  0  0
   -0.4611    0.9933   -0.0004 C   0  0  0  0  0  0  0  0  0  0  0  0
   -0.7160    2.0524   -0.0006 H   0  0  0  0  0  0  0  0  0  0  0  0
    1.0202   -0.7146    0.0000 N   0  0  0  0  0  0  0  0  0  0  0  0
  1  8  2  0  0  0  0
  1  2  1  0  0  0  0
  2  3  1  0  0  0  0
  4  5  1  0  0  0  0
  6  4  1  0  0  0  0
  6  2  2  0  0  0  0
  7  6  1  0  0  0  0
  8  4  1  0  0  0  0
M  RAD  1   1   2
M  END
