Pyrazole-4-N2+-UB3LYP-aug-cc-pVDZ-Triplet.log
 OpenBabel04131813133D
Gaussian home/ubuntu/g09/g09 #p Temperature=298.15 opt freq UB3LYP/aug-cc-pVDZ
 10 10  0  0  0  0  0  0  0  0999 V2000
    1.7422   -0.5075    0.0008 N   0  0  0  0  0  0  0  0  0  0  0  0
    2.5711    0.3708   -0.0008 N   0  0  0  0  0  0  0  0  0  0  0  0
    0.3838   -0.2223    0.0002 C   0  0  0  0  0  0  0  0  0  0  0  0
   -0.6894   -1.1822   -0.0001 C   0  0  0  0  0  0  0  0  0  0  0  0
   -0.6142   -2.2673   -0.0002 H   0  0  0  0  0  0  0  0  0  0  0  0
   -1.5549    0.8072   -0.0000 N   0  0  0  0  0  0  0  0  0  0  0  0
   -2.3429    1.4547   -0.0001 H   0  0  0  0  0  0  0  0  0  0  0  0
   -0.2843    1.0862    0.0003 C   0  0  0  0  0  0  0  0  0  0  0  0
    0.1332    2.0917    0.0005 H   0  0  0  0  0  0  0  0  0  0  0  0
   -1.8494   -0.5803   -0.0003 N   0  0  0  0  0  0  0  0  0  0  0  0
  2  1  2  0  0  0  0
  3  8  2  0  0  0  0
  3  1  1  0  0  0  0
  4  3  1  0  0  0  0
  5  4  1  0  0  0  0
  6  8  1  0  0  0  0
  7  6  1  0  0  0  0
  8  9  1  0  0  0  0
 10  4  2  0  0  0  0
 10  6  1  0  0  0  0
M  RAD  1   2   2
M  END
