Pyrazole-5-N2+-RB3LYP-aug-cc-pVDZ-Singlet.log
 OpenBabel04131813133D
Gaussian home/ubuntu/g09/g09 #p Temperature=298.15 opt freq RB3LYP/aug-cc-pVDZ
 10 10  0  0  0  0  0  0  0  0999 V2000
    1.6576    0.0397   -0.0001 N   0  0  0  0  0  0  0  0  0  0  0  0
    2.7765    0.0182    0.0000 N   0  0  0  0  0  0  0  0  0  0  0  0
    0.3095    0.0749   -0.0002 C   0  0  0  0  0  0  0  0  0  0  0  0
   -0.4635   -1.0677    0.0003 N   0  0  0  0  0  0  0  0  0  0  0  0
   -0.1720   -2.0417    0.0005 H   0  0  0  0  0  0  0  0  0  0  0  0
   -1.8199    0.5913    0.0001 C   0  0  0  0  0  0  0  0  0  0  0  0
   -2.7908    1.0776    0.0004 H   0  0  0  0  0  0  0  0  0  0  0  0
   -0.5502    1.1823    0.0000 C   0  0  0  0  0  0  0  0  0  0  0  0
   -0.2765    2.2326    0.0003 H   0  0  0  0  0  0  0  0  0  0  0  0
   -1.7416   -0.7559   -0.0004 N   0  0  0  0  0  0  0  0  0  0  0  0
  1  2  1  0  0  0  0
  3  1  1  0  0  0  0
  3  8  2  0  0  0  0
  3  4  1  0  0  0  0
  4  5  1  0  0  0  0
  6  7  1  0  0  0  0
  8  6  1  0  0  0  0
  8  9  1  0  0  0  0
 10  6  2  0  0  0  0
 10  4  1  0  0  0  0
M  RAD  2   1   2   2   3
M  END
