Pyrazole-4+-RB3LYP-aug-cc-pVDZ-Singlet.log
 OpenBabel04131813133D
Gaussian home/ubuntu/g09/g09 #p Temperature=298.15 opt freq RB3LYP/aug-cc-pVDZ
  8  8  0  0  0  0  0  0  0  0999 V2000
    0.2222   -1.0499    0.0015 C   0  0  0  0  0  0  0  0  0  0  0  0
    1.2994   -0.2275   -0.0012 C   0  0  0  0  0  0  0  0  0  0  0  0
    2.3818   -0.2719   -0.0010 H   0  0  0  0  0  0  0  0  0  0  0  0
   -0.7871    0.6958   -0.0003 N   0  0  0  0  0  0  0  0  0  0  0  0
   -1.3932    1.5136    0.0009 H   0  0  0  0  0  0  0  0  0  0  0  0
   -1.0816   -0.6109   -0.0005 C   0  0  0  0  0  0  0  0  0  0  0  0
   -2.0491   -1.0992   -0.0015 H   0  0  0  0  0  0  0  0  0  0  0  0
    0.5614    0.9023    0.0007 N   0  0  0  0  0  0  0  0  0  0  0  0
  2  3  1  0  0  0  0
  2  8  2  0  0  0  0
  2  1  1  0  0  0  0
  4  8  1  0  0  0  0
  4  5  1  0  0  0  0
  6  4  1  0  0  0  0
  6  1  2  0  0  0  0
  7  6  1  0  0  0  0
M  RAD  1   1   2
M  END
