Tetrazole-5-UB3LYP-aug-cc-pVDZ-Doublet.log
 OpenBabel04131813133D
Gaussian home/ubuntu/g09/g09 #p Temperature=298.15 opt freq UB3LYP/aug-cc-pVDZ
  6  6  0  0  0  0  0  0  0  0999 V2000
    1.0356   -0.3154    0.0000 N   0  0  0  0  0  0  0  0  0  0  0  0
    0.5662    0.9581   -0.0001 N   0  0  0  0  0  0  0  0  0  0  0  0
   -1.1360   -0.4658   -0.0001 N   0  0  0  0  0  0  0  0  0  0  0  0
   -0.7260    0.8664    0.0001 N   0  0  0  0  0  0  0  0  0  0  0  0
   -0.0342   -1.1312    0.0000 C   0  0  0  0  0  0  0  0  0  0  0  0
    2.0264   -0.5155    0.0000 H   0  0  0  0  0  0  0  0  0  0  0  0
  1  6  1  0  0  0  0
  2  1  1  0  0  0  0
  2  4  2  0  0  0  0
  3  5  2  0  0  0  0
  3  4  1  0  0  0  0
  5  1  1  0  0  0  0
M  RAD  1   5   2
M  END
