Tetrazole-5+-UB3LYP-aug-cc-pVDZ-Triplet.log
 OpenBabel04131813133D
Gaussian home/ubuntu/g09/g09 #p Temperature=298.15 opt freq UB3LYP/aug-cc-pVDZ
  6  6  0  0  0  0  0  0  0  0999 V2000
   -1.0725    0.2677    0.0003 N   0  0  0  0  0  0  0  0  0  0  0  0
   -0.6603   -0.9456   -0.0003 N   0  0  0  0  0  0  0  0  0  0  0  0
    1.1724    0.4274    0.0000 N   0  0  0  0  0  0  0  0  0  0  0  0
    0.8605   -0.7966    0.0002 N   0  0  0  0  0  0  0  0  0  0  0  0
   -0.0043    1.1381   -0.0003 C   0  0  0  0  0  0  0  0  0  0  0  0
   -2.0743    0.5013    0.0002 H   0  0  0  0  0  0  0  0  0  0  0  0
  2  4  2  0  0  0  0
  2  1  1  0  0  0  0
  3  4  1  0  0  0  0
  5  3  2  0  0  0  0
  5  1  1  0  0  0  0
  6  1  1  0  0  0  0
M  RAD  1   5   2
M  END
