Coordinates from ORCA-job tert-Butyl-N2+-scan-d09-169-n800
 OpenBabel09191813453D

 15 13  0  0  0  0  0  0  0  0999 V2000
   -0.2899    0.3934    0.0560 C   0  0  0  0  0  0  0  0  0  0  0  0
    0.6923   -2.3804    0.0561 N   0  0  0  0  0  0  0  0  0  0  0  0
    1.0653   -3.4192    0.0561 N   0  0  0  0  0  0  0  0  0  0  0  0
    0.3810    0.6928    1.3267 C   0  0  0  0  0  0  0  0  0  0  0  0
    1.4734    0.6320    1.2648 H   0  0  0  0  0  0  0  0  0  0  0  0
    0.1414    1.7612    1.5238 H   0  0  0  0  0  0  0  0  0  0  0  0
   -0.0219    0.1254    2.1720 H   0  0  0  0  0  0  0  0  0  0  0  0
   -1.6906   -0.0451    0.0559 C   0  0  0  0  0  0  0  0  0  0  0  0
   -2.2797    0.8987    0.0558 H   0  0  0  0  0  0  0  0  0  0  0  0
   -1.9734   -0.5847   -0.8543 H   0  0  0  0  0  0  0  0  0  0  0  0
   -1.9736   -0.5847    0.9661 H   0  0  0  0  0  0  0  0  0  0  0  0
    0.3812    0.6927   -1.2145 C   0  0  0  0  0  0  0  0  0  0  0  0
    0.1417    1.7612   -1.4117 H   0  0  0  0  0  0  0  0  0  0  0  0
    1.4736    0.6319   -1.1525 H   0  0  0  0  0  0  0  0  0  0  0  0
   -0.0215    0.1254   -2.0599 H   0  0  0  0  0  0  0  0  0  0  0  0
  1  4  1  0  0  0  0
  2  3  3  0  0  0  0
  4  6  1  0  0  0  0
  4  7  1  0  0  0  0
  5  4  1  0  0  0  0
  8  1  1  0  0  0  0
  8 11  1  0  0  0  0
  9  8  1  0  0  0  0
 10  8  1  0  0  0  0
 12 14  1  0  0  0  0
 12  1  1  0  0  0  0
 13 12  1  0  0  0  0
 15 12  1  0  0  0  0
M  RAD  1   1   2
M  END
