Coordinates from ORCA-job tert-Butyl-N2+-scan-d09-169-n800
 OpenBabel09191813453D

 15 13  0  0  0  0  0  0  0  0999 V2000
   -0.1112    0.7929    0.2551 C   0  0  0  0  0  0  0  0  0  0  0  0
   -0.4253   -4.3063   -1.0197 N   0  0  0  0  0  0  0  0  0  0  0  0
   -0.4187   -5.3653   -1.3316 N   0  0  0  0  0  0  0  0  0  0  0  0
    0.0879    1.8012    1.2989 C   0  0  0  0  0  0  0  0  0  0  0  0
    0.8643    2.5361    1.0643 H   0  0  0  0  0  0  0  0  0  0  0  0
   -0.8840    2.3396    1.3685 H   0  0  0  0  0  0  0  0  0  0  0  0
    0.2216    1.3445    2.2898 H   0  0  0  0  0  0  0  0  0  0  0  0
   -0.9442   -0.3838    0.5131 C   0  0  0  0  0  0  0  0  0  0  0  0
   -1.9038   -0.1771   -0.0102 H   0  0  0  0  0  0  0  0  0  0  0  0
   -0.5553   -1.2782    0.0009 H   0  0  0  0  0  0  0  0  0  0  0  0
   -1.1562   -0.5658    1.5702 H   0  0  0  0  0  0  0  0  0  0  0  0
    0.5052    0.9694   -1.0595 C   0  0  0  0  0  0  0  0  0  0  0  0
    0.6035    2.0258   -1.3448 H   0  0  0  0  0  0  0  0  0  0  0  0
    1.5520    0.6172   -0.9074 H   0  0  0  0  0  0  0  0  0  0  0  0
    0.0633    0.3503   -1.8471 H   0  0  0  0  0  0  0  0  0  0  0  0
  1  8  1  0  0  0  0
  1  4  1  0  0  0  0
  3  2  3  0  0  0  0
  4  6  1  0  0  0  0
  4  7  1  0  0  0  0
  5  4  1  0  0  0  0
  8 11  1  0  0  0  0
  9  8  1  0  0  0  0
 10  8  1  0  0  0  0
 12 14  1  0  0  0  0
 12  1  1  0  0  0  0
 13 12  1  0  0  0  0
 15 12  1  0  0  0  0
M  RAD  1   1   2
M  END
