Coordinates from ORCA-job tert-Butyl-N2+-scan-d09-169-n800
 OpenBabel09191813453D

 15 14  0  0  0  0  0  0  0  0999 V2000
   -0.1332   -0.0493    0.0560 C   0  0  0  0  0  0  0  0  0  0  0  0
    0.3822   -1.5013    0.0561 N   0  0  0  0  0  0  0  0  0  0  0  0
    0.7520   -2.5411    0.0561 N   0  0  0  0  0  0  0  0  0  0  0  0
    0.4394    0.5580    1.3411 C   0  0  0  0  0  0  0  0  0  0  0  0
    1.5355    0.5581    1.3422 H   0  0  0  0  0  0  0  0  0  0  0  0
    0.0947    1.5999    1.3666 H   0  0  0  0  0  0  0  0  0  0  0  0
    0.0613    0.0515    2.2360 H   0  0  0  0  0  0  0  0  0  0  0  0
   -1.6589   -0.1849    0.0559 C   0  0  0  0  0  0  0  0  0  0  0  0
   -2.0598    0.8370    0.0558 H   0  0  0  0  0  0  0  0  0  0  0  0
   -2.0229   -0.6973   -0.8416 H   0  0  0  0  0  0  0  0  0  0  0  0
   -2.0231   -0.6972    0.9534 H   0  0  0  0  0  0  0  0  0  0  0  0
    0.4397    0.5579   -1.2290 C   0  0  0  0  0  0  0  0  0  0  0  0
    0.0949    1.5998   -1.2545 H   0  0  0  0  0  0  0  0  0  0  0  0
    1.5358    0.5580   -1.2298 H   0  0  0  0  0  0  0  0  0  0  0  0
    0.0617    0.0514   -2.1239 H   0  0  0  0  0  0  0  0  0  0  0  0
  1  2  1  0  0  0  0
  1  4  1  0  0  0  0
  2  3  1  0  0  0  0
  4  5  1  0  0  0  0
  4  6  1  0  0  0  0
  4  7  1  0  0  0  0
  8  1  1  0  0  0  0
  8 11  1  0  0  0  0
  9  8  1  0  0  0  0
 10  8  1  0  0  0  0
 12  1  1  0  0  0  0
 13 12  1  0  0  0  0
 14 12  1  0  0  0  0
 15 12  1  0  0  0  0
M  RAD  2   2   2   3   3
M  END
