Coordinates from ORCA-job tert-Butyl-N2+-scan-d09-169-n800
 OpenBabel09191813453D

 15 14  0  0  0  0  0  0  0  0999 V2000
   -0.0359   -0.3242    0.0560 C   0  0  0  0  0  0  0  0  0  0  0  0
    0.2722   -1.1911    0.0561 N   0  0  0  0  0  0  0  0  0  0  0  0
    0.6558   -2.2705    0.0562 N   0  0  0  0  0  0  0  0  0  0  0  0
    0.4597    0.5419    1.3665 C   0  0  0  0  0  0  0  0  0  0  0  0
    1.5543    0.5402    1.3482 H   0  0  0  0  0  0  0  0  0  0  0  0
    0.0465    1.5474    1.2731 H   0  0  0  0  0  0  0  0  0  0  0  0
    0.0757    0.0199    2.2484 H   0  0  0  0  0  0  0  0  0  0  0  0
   -1.6777   -0.2122    0.0559 C   0  0  0  0  0  0  0  0  0  0  0  0
   -1.9363    0.8477    0.0559 H   0  0  0  0  0  0  0  0  0  0  0  0
   -2.0261   -0.7236   -0.8468 H   0  0  0  0  0  0  0  0  0  0  0  0
   -2.0263   -0.7238    0.9584 H   0  0  0  0  0  0  0  0  0  0  0  0
    0.4599    0.5418   -1.2544 C   0  0  0  0  0  0  0  0  0  0  0  0
    0.0466    1.5473   -1.1612 H   0  0  0  0  0  0  0  0  0  0  0  0
    1.5545    0.5403   -1.2357 H   0  0  0  0  0  0  0  0  0  0  0  0
    0.0763    0.0196   -2.1363 H   0  0  0  0  0  0  0  0  0  0  0  0
  1  2  1  0  0  0  0
  1  4  1  0  0  0  0
  2  3  1  0  0  0  0
  4  7  1  0  0  0  0
  5  4  1  0  0  0  0
  6  4  1  0  0  0  0
  8  9  1  0  0  0  0
  8  1  1  0  0  0  0
  8 11  1  0  0  0  0
 10  8  1  0  0  0  0
 12 14  1  0  0  0  0
 12 13  1  0  0  0  0
 12  1  1  0  0  0  0
 15 12  1  0  0  0  0
M  RAD  2   2   2   3   3
M  END
