Coordinates from ORCA-job tert-Butyl-N2+-scan-d09-169-n800
 OpenBabel09191813453D

 15 13  0  0  0  0  0  0  0  0999 V2000
   -0.2789    0.3598    0.0560 C   0  0  0  0  0  0  0  0  0  0  0  0
    0.6448   -2.2435    0.0561 N   0  0  0  0  0  0  0  0  0  0  0  0
    1.0211   -3.2811    0.0561 N   0  0  0  0  0  0  0  0  0  0  0  0
    0.3889    0.6700    1.3268 C   0  0  0  0  0  0  0  0  0  0  0  0
    1.4814    0.6115    1.2680 H   0  0  0  0  0  0  0  0  0  0  0  0
    0.1448    1.7390    1.5136 H   0  0  0  0  0  0  0  0  0  0  0  0
   -0.0139    0.1081    2.1755 H   0  0  0  0  0  0  0  0  0  0  0  0
   -1.6841   -0.0668    0.0559 C   0  0  0  0  0  0  0  0  0  0  0  0
   -2.2626    0.8831    0.0558 H   0  0  0  0  0  0  0  0  0  0  0  0
   -1.9721   -0.6040   -0.8540 H   0  0  0  0  0  0  0  0  0  0  0  0
   -1.9723   -0.6040    0.9657 H   0  0  0  0  0  0  0  0  0  0  0  0
    0.3891    0.6700   -1.2147 C   0  0  0  0  0  0  0  0  0  0  0  0
    0.1451    1.7390   -1.4015 H   0  0  0  0  0  0  0  0  0  0  0  0
    1.4816    0.6115   -1.1557 H   0  0  0  0  0  0  0  0  0  0  0  0
   -0.0136    0.1081   -2.0634 H   0  0  0  0  0  0  0  0  0  0  0  0
  1  4  1  0  0  0  0
  2  3  3  0  0  0  0
  4  6  1  0  0  0  0
  4  7  1  0  0  0  0
  5  4  1  0  0  0  0
  8  1  1  0  0  0  0
  8 11  1  0  0  0  0
  9  8  1  0  0  0  0
 10  8  1  0  0  0  0
 12 14  1  0  0  0  0
 12  1  1  0  0  0  0
 13 12  1  0  0  0  0
 15 12  1  0  0  0  0
M  RAD  1   1   2
M  END
