Coordinates from ORCA-job tert-Butyl-N2+-scan-d09-169-n800
 OpenBabel09191813453D

 15 13  0  0  0  0  0  0  0  0999 V2000
   -0.1464    0.7148    0.2329 C   0  0  0  0  0  0  0  0  0  0  0  0
   -0.2731   -3.7891   -0.8948 N   0  0  0  0  0  0  0  0  0  0  0  0
   -0.1815   -4.8458   -1.2006 N   0  0  0  0  0  0  0  0  0  0  0  0
    0.1511    1.6861    1.2883 C   0  0  0  0  0  0  0  0  0  0  0  0
    0.9575    2.3831    1.0417 H   0  0  0  0  0  0  0  0  0  0  0  0
   -0.7875    2.2663    1.4297 H   0  0  0  0  0  0  0  0  0  0  0  0
    0.3071    1.1880    2.2571 H   0  0  0  0  0  0  0  0  0  0  0  0
   -1.0699   -0.3911    0.4884 C   0  0  0  0  0  0  0  0  0  0  0  0
   -1.9865   -0.1575   -0.0943 H   0  0  0  0  0  0  0  0  0  0  0  0
   -0.7068   -1.3257    0.0277 H   0  0  0  0  0  0  0  0  0  0  0  0
   -1.3352   -0.5255    1.5403 H   0  0  0  0  0  0  0  0  0  0  0  0
    0.4688    0.8564   -1.0870 C   0  0  0  0  0  0  0  0  0  0  0  0
    0.6011    1.9092   -1.3748 H   0  0  0  0  0  0  0  0  0  0  0  0
    1.5058    0.4754   -0.9445 H   0  0  0  0  0  0  0  0  0  0  0  0
   -0.0053    0.2561   -1.8698 H   0  0  0  0  0  0  0  0  0  0  0  0
  1  8  1  0  0  0  0
  1  4  1  0  0  0  0
  3  2  3  0  0  0  0
  4  6  1  0  0  0  0
  4  7  1  0  0  0  0
  5  4  1  0  0  0  0
  8 11  1  0  0  0  0
  9  8  1  0  0  0  0
 10  8  1  0  0  0  0
 12 14  1  0  0  0  0
 12  1  1  0  0  0  0
 13 12  1  0  0  0  0
 15 12  1  0  0  0  0
M  RAD  1   1   2
M  END
