Coordinates from ORCA-job tert-Butyl-N2+-scan-d09-169-n800
 OpenBabel09191813453D

 15 13  0  0  0  0  0  0  0  0999 V2000
   -0.1741    0.7146    0.1537 C   0  0  0  0  0  0  0  0  0  0  0  0
   -0.1948   -3.7639   -0.4898 N   0  0  0  0  0  0  0  0  0  0  0  0
   -0.0825   -4.8429   -0.6933 N   0  0  0  0  0  0  0  0  0  0  0  0
    0.3030    1.4212    1.3454 C   0  0  0  0  0  0  0  0  0  0  0  0
    1.1797    2.0530    1.1780 H   0  0  0  0  0  0  0  0  0  0  0  0
   -0.5449    2.0454    1.6971 H   0  0  0  0  0  0  0  0  0  0  0  0
    0.4630    0.7088    2.1723 H   0  0  0  0  0  0  0  0  0  0  0  0
   -1.2215   -0.2964    0.2759 C   0  0  0  0  0  0  0  0  0  0  0  0
   -1.9574   -0.2043   -0.5390 H   0  0  0  0  0  0  0  0  0  0  0  0
   -0.7228   -1.2704    0.0659 H   0  0  0  0  0  0  0  0  0  0  0  0
   -1.6927   -0.3448    1.2616 H   0  0  0  0  0  0  0  0  0  0  0  0
    0.4017    1.0216   -1.1580 C   0  0  0  0  0  0  0  0  0  0  0  0
    0.2513    2.1032   -1.3455 H   0  0  0  0  0  0  0  0  0  0  0  0
    1.5013    0.9221   -1.1018 H   0  0  0  0  0  0  0  0  0  0  0  0
   -0.0100    0.4335   -1.9820 H   0  0  0  0  0  0  0  0  0  0  0  0
  1  8  1  0  0  0  0
  1  4  1  0  0  0  0
  3  2  3  0  0  0  0
  4  6  1  0  0  0  0
  4  7  1  0  0  0  0
  5  4  1  0  0  0  0
  8 11  1  0  0  0  0
  9  8  1  0  0  0  0
 10  8  1  0  0  0  0
 12 14  1  0  0  0  0
 12  1  1  0  0  0  0
 13 12  1  0  0  0  0
 15 12  1  0  0  0  0
M  RAD  1   1   2
M  END
