Coordinates from ORCA-job tert-Butyl-N2+-scan-d09-169-n800
 OpenBabel09191813453D

 15 13  0  0  0  0  0  0  0  0999 V2000
   -0.2068    0.6754    0.1449 C   0  0  0  0  0  0  0  0  0  0  0  0
   -0.0631   -3.4460   -0.4325 N   0  0  0  0  0  0  0  0  0  0  0  0
    0.1681   -4.5093   -0.6172 N   0  0  0  0  0  0  0  0  0  0  0  0
    0.3369    1.3162    1.3454 C   0  0  0  0  0  0  0  0  0  0  0  0
    1.1689    1.9998    1.1541 H   0  0  0  0  0  0  0  0  0  0  0  0
   -0.4714    1.8006    1.9184 H   0  0  0  0  0  0  0  0  0  0  0  0
    0.6775    0.4974    2.0132 H   0  0  0  0  0  0  0  0  0  0  0  0
   -1.3777   -0.1933    0.2406 C   0  0  0  0  0  0  0  0  0  0  0  0
   -2.0541   -0.0389   -0.6153 H   0  0  0  0  0  0  0  0  0  0  0  0
   -0.9882   -1.2246    0.0840 H   0  0  0  0  0  0  0  0  0  0  0  0
   -1.9021   -0.1461    1.1991 H   0  0  0  0  0  0  0  0  0  0  0  0
    0.4341    0.8925   -1.1526 C   0  0  0  0  0  0  0  0  0  0  0  0
    0.1529    1.9319   -1.4335 H   0  0  0  0  0  0  0  0  0  0  0  0
    1.5308    0.9266   -1.0641 H   0  0  0  0  0  0  0  0  0  0  0  0
    0.0935    0.2185   -1.9443 H   0  0  0  0  0  0  0  0  0  0  0  0
  1  8  1  0  0  0  0
  1  4  1  0  0  0  0
  3  2  3  0  0  0  0
  4  6  1  0  0  0  0
  4  7  1  0  0  0  0
  5  4  1  0  0  0  0
  8 11  1  0  0  0  0
  9  8  1  0  0  0  0
 10  8  1  0  0  0  0
 12 14  1  0  0  0  0
 12  1  1  0  0  0  0
 13 12  1  0  0  0  0
 15 12  1  0  0  0  0
M  RAD  1   1   2
M  END
