Coordinates from ORCA-job tert-Butyl-N2+-scan-d09-169-n800
 OpenBabel09191813453D

 15 14  0  0  0  0  0  0  0  0999 V2000
   -0.1301   -0.0581    0.0560 C   0  0  0  0  0  0  0  0  0  0  0  0
    0.3787   -1.4913    0.0561 N   0  0  0  0  0  0  0  0  0  0  0  0
    0.7486   -2.5313    0.0561 N   0  0  0  0  0  0  0  0  0  0  0  0
    0.4401    0.5568    1.3415 C   0  0  0  0  0  0  0  0  0  0  0  0
    1.5362    0.5576    1.3436 H   0  0  0  0  0  0  0  0  0  0  0  0
    0.0935    1.5979    1.3630 H   0  0  0  0  0  0  0  0  0  0  0  0
    0.0620    0.0515    2.2372 H   0  0  0  0  0  0  0  0  0  0  0  0
   -1.6588   -0.1864    0.0559 C   0  0  0  0  0  0  0  0  0  0  0  0
   -2.0556    0.8369    0.0558 H   0  0  0  0  0  0  0  0  0  0  0  0
   -2.0240   -0.6983   -0.8414 H   0  0  0  0  0  0  0  0  0  0  0  0
   -2.0242   -0.6983    0.9532 H   0  0  0  0  0  0  0  0  0  0  0  0
    0.4403    0.5568   -1.2293 C   0  0  0  0  0  0  0  0  0  0  0  0
    0.0937    1.5979   -1.2509 H   0  0  0  0  0  0  0  0  0  0  0  0
    1.5365    0.5576   -1.2312 H   0  0  0  0  0  0  0  0  0  0  0  0
    0.0625    0.0514   -2.1250 H   0  0  0  0  0  0  0  0  0  0  0  0
  1  2  1  0  0  0  0
  1  4  1  0  0  0  0
  2  3  1  0  0  0  0
  4  5  1  0  0  0  0
  4  6  1  0  0  0  0
  4  7  1  0  0  0  0
  8  1  1  0  0  0  0
  8 11  1  0  0  0  0
  9  8  1  0  0  0  0
 10  8  1  0  0  0  0
 12  1  1  0  0  0  0
 13 12  1  0  0  0  0
 14 12  1  0  0  0  0
 15 12  1  0  0  0  0
M  RAD  2   2   2   3   3
M  END
