Coordinates from ORCA-job tert-Butyl-N2+-scan-d09-169-n800
 OpenBabel09191813453D

 15 14  0  0  0  0  0  0  0  0999 V2000
   -0.0751   -0.2132    0.0560 C   0  0  0  0  0  0  0  0  0  0  0  0
    0.3135   -1.3065    0.0561 N   0  0  0  0  0  0  0  0  0  0  0  0
    0.6885   -2.3602    0.0562 N   0  0  0  0  0  0  0  0  0  0  0  0
    0.4518    0.5396    1.3515 C   0  0  0  0  0  0  0  0  0  0  0  0
    1.5475    0.5496    1.3553 H   0  0  0  0  0  0  0  0  0  0  0  0
    0.0654    1.5613    1.3023 H   0  0  0  0  0  0  0  0  0  0  0  0
    0.0740    0.0380    2.2489 H   0  0  0  0  0  0  0  0  0  0  0  0
   -1.6623   -0.2078    0.0559 C   0  0  0  0  0  0  0  0  0  0  0  0
   -1.9766    0.8395    0.0558 H   0  0  0  0  0  0  0  0  0  0  0  0
   -2.0335   -0.7140   -0.8417 H   0  0  0  0  0  0  0  0  0  0  0  0
   -2.0337   -0.7139    0.9535 H   0  0  0  0  0  0  0  0  0  0  0  0
    0.4521    0.5395   -1.2394 C   0  0  0  0  0  0  0  0  0  0  0  0
    0.0656    1.5613   -1.1903 H   0  0  0  0  0  0  0  0  0  0  0  0
    1.5478    0.5496   -1.2429 H   0  0  0  0  0  0  0  0  0  0  0  0
    0.0744    0.0379   -2.1368 H   0  0  0  0  0  0  0  0  0  0  0  0
  1  2  1  0  0  0  0
  1  4  1  0  0  0  0
  2  3  1  0  0  0  0
  4  5  1  0  0  0  0
  4  7  1  0  0  0  0
  6  4  1  0  0  0  0
  8  1  1  0  0  0  0
  8 11  1  0  0  0  0
  9  8  1  0  0  0  0
 10  8  1  0  0  0  0
 12 13  1  0  0  0  0
 12  1  1  0  0  0  0
 14 12  1  0  0  0  0
 15 12  1  0  0  0  0
M  RAD  2   2   2   3   3
M  END
