Coordinates from ORCA-job tert-Butyl-N2+-scan-d09-169-n800
 OpenBabel09191813453D

 15 13  0  0  0  0  0  0  0  0999 V2000
   -0.1405    0.7251    0.2354 C   0  0  0  0  0  0  0  0  0  0  0  0
   -0.2958   -3.8560   -0.9105 N   0  0  0  0  0  0  0  0  0  0  0  0
   -0.2258   -4.9143   -1.2165 N   0  0  0  0  0  0  0  0  0  0  0  0
    0.1397    1.7035    1.2890 C   0  0  0  0  0  0  0  0  0  0  0  0
    0.9370    2.4109    1.0426 H   0  0  0  0  0  0  0  0  0  0  0  0
   -0.8071    2.2712    1.4257 H   0  0  0  0  0  0  0  0  0  0  0  0
    0.2998    1.2105    2.2598 H   0  0  0  0  0  0  0  0  0  0  0  0
   -1.0493   -0.3933    0.4908 C   0  0  0  0  0  0  0  0  0  0  0  0
   -1.9731   -0.1628   -0.0822 H   0  0  0  0  0  0  0  0  0  0  0  0
   -0.6822   -1.3215    0.0211 H   0  0  0  0  0  0  0  0  0  0  0  0
   -1.3066   -0.5360    1.5436 H   0  0  0  0  0  0  0  0  0  0  0  0
    0.4764    0.8721   -1.0831 C   0  0  0  0  0  0  0  0  0  0  0  0
    0.6005    1.9256   -1.3716 H   0  0  0  0  0  0  0  0  0  0  0  0
    1.5161    0.4994   -0.9372 H   0  0  0  0  0  0  0  0  0  0  0  0
    0.0102    0.2664   -1.8665 H   0  0  0  0  0  0  0  0  0  0  0  0
  1  8  1  0  0  0  0
  1  4  1  0  0  0  0
  3  2  3  0  0  0  0
  4  6  1  0  0  0  0
  4  7  1  0  0  0  0
  5  4  1  0  0  0  0
  8 11  1  0  0  0  0
  9  8  1  0  0  0  0
 10  8  1  0  0  0  0
 12 14  1  0  0  0  0
 12  1  1  0  0  0  0
 13 12  1  0  0  0  0
 15 12  1  0  0  0  0
M  RAD  1   1   2
M  END
