Coordinates from ORCA-job tert-Butyl-N2+-scan-d09-169-n800
 OpenBabel09191813453D

 15 13  0  0  0  0  0  0  0  0999 V2000
   -0.1916    0.6823    0.1269 C   0  0  0  0  0  0  0  0  0  0  0  0
   -0.0890   -3.5735   -0.3553 N   0  0  0  0  0  0  0  0  0  0  0  0
    0.1099   -4.6487   -0.5054 N   0  0  0  0  0  0  0  0  0  0  0  0
    0.3614    1.2744    1.3489 C   0  0  0  0  0  0  0  0  0  0  0  0
    1.2902    1.8323    1.2025 H   0  0  0  0  0  0  0  0  0  0  0  0
   -0.4212    1.9478    1.7553 H   0  0  0  0  0  0  0  0  0  0  0  0
    0.4721    0.5014    2.1286 H   0  0  0  0  0  0  0  0  0  0  0  0
   -1.3210   -0.2382    0.2123 C   0  0  0  0  0  0  0  0  0  0  0  0
   -2.0140   -0.1181   -0.6335 H   0  0  0  0  0  0  0  0  0  0  0  0
   -0.8676   -1.2449    0.0502 H   0  0  0  0  0  0  0  0  0  0  0  0
   -1.8297   -0.2450    1.1811 H   0  0  0  0  0  0  0  0  0  0  0  0
    0.3837    1.0171   -1.1775 C   0  0  0  0  0  0  0  0  0  0  0  0
    0.1535    2.0918   -1.3414 H   0  0  0  0  0  0  0  0  0  0  0  0
    1.4847    0.9854   -1.1420 H   0  0  0  0  0  0  0  0  0  0  0  0
   -0.0221    0.4365   -2.0105 H   0  0  0  0  0  0  0  0  0  0  0  0
  1  8  1  0  0  0  0
  1  4  1  0  0  0  0
  3  2  3  0  0  0  0
  4  6  1  0  0  0  0
  4  7  1  0  0  0  0
  5  4  1  0  0  0  0
  8 11  1  0  0  0  0
  9  8  1  0  0  0  0
 10  8  1  0  0  0  0
 12 14  1  0  0  0  0
 12  1  1  0  0  0  0
 13 12  1  0  0  0  0
 15 12  1  0  0  0  0
M  RAD  1   1   2
M  END
