Coordinates from ORCA-job tert-Butyl-N2+-scan-d09-169-n800
 OpenBabel09191813453D

 15 13  0  0  0  0  0  0  0  0999 V2000
   -0.2388    0.6661    0.1149 C   0  0  0  0  0  0  0  0  0  0  0  0
    0.0518   -3.2916   -0.2361 N   0  0  0  0  0  0  0  0  0  0  0  0
    0.3188   -4.3566   -0.3493 N   0  0  0  0  0  0  0  0  0  0  0  0
    0.3716    1.1617    1.3507 C   0  0  0  0  0  0  0  0  0  0  0  0
    1.1484    1.9165    1.1871 H   0  0  0  0  0  0  0  0  0  0  0  0
   -0.3730    1.4684    2.0968 H   0  0  0  0  0  0  0  0  0  0  0  0
    0.8710    0.2675    1.7885 H   0  0  0  0  0  0  0  0  0  0  0  0
   -1.4803   -0.1041    0.1543 C   0  0  0  0  0  0  0  0  0  0  0  0
   -2.1020    0.0781   -0.7347 H   0  0  0  0  0  0  0  0  0  0  0  0
   -1.1463   -1.1614    0.0418 H   0  0  0  0  0  0  0  0  0  0  0  0
   -2.0427   -0.0118    1.0878 H   0  0  0  0  0  0  0  0  0  0  0  0
    0.4210    0.9097   -1.1683 C   0  0  0  0  0  0  0  0  0  0  0  0
    0.0929    1.9396   -1.4384 H   0  0  0  0  0  0  0  0  0  0  0  0
    1.5142    0.9740   -1.0805 H   0  0  0  0  0  0  0  0  0  0  0  0
    0.0925    0.2447   -1.9741 H   0  0  0  0  0  0  0  0  0  0  0  0
  1  8  1  0  0  0  0
  1  4  1  0  0  0  0
  3  2  3  0  0  0  0
  4  7  1  0  0  0  0
  4  6  1  0  0  0  0
  5  4  1  0  0  0  0
  8 11  1  0  0  0  0
  9  8  1  0  0  0  0
 10  8  1  0  0  0  0
 12 14  1  0  0  0  0
 12  1  1  0  0  0  0
 13 12  1  0  0  0  0
 15 12  1  0  0  0  0
M  RAD  1   1   2
M  END
