Coordinates from ORCA-job tert-Butyl-N2+-scan-d09-169-n800
 OpenBabel09191813453D

 15 13  0  0  0  0  0  0  0  0999 V2000
   -0.2961    0.4134    0.0560 C   0  0  0  0  0  0  0  0  0  0  0  0
    0.7243   -2.4743    0.0561 N   0  0  0  0  0  0  0  0  0  0  0  0
    1.0944   -3.5142    0.0561 N   0  0  0  0  0  0  0  0  0  0  0  0
    0.3760    0.7080    1.3266 C   0  0  0  0  0  0  0  0  0  0  0  0
    1.4685    0.6481    1.2632 H   0  0  0  0  0  0  0  0  0  0  0  0
    0.1365    1.7756    1.5292 H   0  0  0  0  0  0  0  0  0  0  0  0
   -0.0261    0.1372    2.1701 H   0  0  0  0  0  0  0  0  0  0  0  0
   -1.6947   -0.0305    0.0559 C   0  0  0  0  0  0  0  0  0  0  0  0
   -2.2885    0.9106    0.0558 H   0  0  0  0  0  0  0  0  0  0  0  0
   -1.9755   -0.5711   -0.8546 H   0  0  0  0  0  0  0  0  0  0  0  0
   -1.9756   -0.5710    0.9663 H   0  0  0  0  0  0  0  0  0  0  0  0
    0.3763    0.7080   -1.2145 C   0  0  0  0  0  0  0  0  0  0  0  0
    0.1367    1.7756   -1.4171 H   0  0  0  0  0  0  0  0  0  0  0  0
    1.4687    0.6481   -1.1509 H   0  0  0  0  0  0  0  0  0  0  0  0
   -0.0257    0.1372   -2.0580 H   0  0  0  0  0  0  0  0  0  0  0  0
  1  4  1  0  0  0  0
  2  3  3  0  0  0  0
  4  6  1  0  0  0  0
  4  7  1  0  0  0  0
  5  4  1  0  0  0  0
  8  1  1  0  0  0  0
  8 11  1  0  0  0  0
  9  8  1  0  0  0  0
 10  8  1  0  0  0  0
 12 14  1  0  0  0  0
 12  1  1  0  0  0  0
 13 12  1  0  0  0  0
 15 12  1  0  0  0  0
M  RAD  1   1   2
M  END
