Coordinates from ORCA-job tert-Butyl-N2+-scan-d09-169-n800
 OpenBabel09191813453D

 15 13  0  0  0  0  0  0  0  0999 V2000
   -0.2475    0.2693    0.0560 C   0  0  0  0  0  0  0  0  0  0  0  0
    0.5498   -1.9752    0.0561 N   0  0  0  0  0  0  0  0  0  0  0  0
    0.9281   -3.0119    0.0559 N   0  0  0  0  0  0  0  0  0  0  0  0
    0.4065    0.6248    1.3282 C   0  0  0  0  0  0  0  0  0  0  0  0
    1.5000    0.5827    1.2806 H   0  0  0  0  0  0  0  0  0  0  0  0
    0.1374    1.6913    1.4812 H   0  0  0  0  0  0  0  0  0  0  0  0
    0.0092    0.0760    2.1877 H   0  0  0  0  0  0  0  0  0  0  0  0
   -1.6713   -0.1108    0.0559 C   0  0  0  0  0  0  0  0  0  0  0  0
   -2.2108    0.8598    0.0558 H   0  0  0  0  0  0  0  0  0  0  0  0
   -1.9781   -0.6397   -0.8522 H   0  0  0  0  0  0  0  0  0  0  0  0
   -1.9783   -0.6397    0.9640 H   0  0  0  0  0  0  0  0  0  0  0  0
    0.4068    0.6247   -1.2161 C   0  0  0  0  0  0  0  0  0  0  0  0
    0.1377    1.6912   -1.3691 H   0  0  0  0  0  0  0  0  0  0  0  0
    1.5002    0.5826   -1.1682 H   0  0  0  0  0  0  0  0  0  0  0  0
    0.0096    0.0758   -2.0756 H   0  0  0  0  0  0  0  0  0  0  0  0
  1  4  1  0  0  0  0
  3  2  3  0  0  0  0
  4  6  1  0  0  0  0
  4  7  1  0  0  0  0
  5  4  1  0  0  0  0
  8  1  1  0  0  0  0
  8 11  1  0  0  0  0
  9  8  1  0  0  0  0
 10  8  1  0  0  0  0
 12 14  1  0  0  0  0
 12  1  1  0  0  0  0
 13 12  1  0  0  0  0
 15 12  1  0  0  0  0
M  RAD  1   1   2
M  END
