Coordinates from ORCA-job tert-Butyl-N2+-scan-d09-169-n800
 OpenBabel09191813453D

 15 13  0  0  0  0  0  0  0  0999 V2000
   -0.1700    0.7221    0.1594 C   0  0  0  0  0  0  0  0  0  0  0  0
   -0.2167   -3.8117   -0.5195 N   0  0  0  0  0  0  0  0  0  0  0  0
   -0.1186   -4.8907   -0.7307 N   0  0  0  0  0  0  0  0  0  0  0  0
    0.2909    1.4502    1.3443 C   0  0  0  0  0  0  0  0  0  0  0  0
    1.1583    2.0938    1.1728 H   0  0  0  0  0  0  0  0  0  0  0  0
   -0.5684    2.0666    1.6826 H   0  0  0  0  0  0  0  0  0  0  0  0
    0.4563    0.7518    2.1818 H   0  0  0  0  0  0  0  0  0  0  0  0
   -1.2007   -0.3055    0.2893 C   0  0  0  0  0  0  0  0  0  0  0  0
   -1.9466   -0.2167   -0.5174 H   0  0  0  0  0  0  0  0  0  0  0  0
   -0.6948   -1.2725    0.0670 H   0  0  0  0  0  0  0  0  0  0  0  0
   -1.6624   -0.3625    1.2789 H   0  0  0  0  0  0  0  0  0  0  0  0
    0.4057    1.0239   -1.1534 C   0  0  0  0  0  0  0  0  0  0  0  0
    0.2673    2.1055   -1.3467 H   0  0  0  0  0  0  0  0  0  0  0  0
    1.5047    0.9139   -1.0927 H   0  0  0  0  0  0  0  0  0  0  0  0
   -0.0056    0.4326   -1.9753 H   0  0  0  0  0  0  0  0  0  0  0  0
  1  8  1  0  0  0  0
  1  4  1  0  0  0  0
  3  2  3  0  0  0  0
  4  6  1  0  0  0  0
  4  7  1  0  0  0  0
  5  4  1  0  0  0  0
  8 11  1  0  0  0  0
  9  8  1  0  0  0  0
 10  8  1  0  0  0  0
 12 14  1  0  0  0  0
 12  1  1  0  0  0  0
 13 12  1  0  0  0  0
 15 12  1  0  0  0  0
M  RAD  1   1   2
M  END
