Coordinates from ORCA-job tert-Butyl-N2+-scan-d09-169-n800
 OpenBabel09191813453D

 15 13  0  0  0  0  0  0  0  0999 V2000
   -0.1161    0.7756    0.2488 C   0  0  0  0  0  0  0  0  0  0  0  0
   -0.4042   -4.1903   -0.9861 N   0  0  0  0  0  0  0  0  0  0  0  0
   -0.3880   -5.2501   -1.2950 N   0  0  0  0  0  0  0  0  0  0  0  0
    0.0959    1.7777    1.2961 C   0  0  0  0  0  0  0  0  0  0  0  0
    0.8709    2.5128    1.0585 H   0  0  0  0  0  0  0  0  0  0  0  0
   -0.8748    2.3145    1.3860 H   0  0  0  0  0  0  0  0  0  0  0  0
    0.2428    1.3115    2.2812 H   0  0  0  0  0  0  0  0  0  0  0  0
   -0.9619   -0.3923    0.5041 C   0  0  0  0  0  0  0  0  0  0  0  0
   -1.9152   -0.1800   -0.0279 H   0  0  0  0  0  0  0  0  0  0  0  0
   -0.5766   -1.2919   -0.0020 H   0  0  0  0  0  0  0  0  0  0  0  0
   -1.1827   -0.5691    1.5603 H   0  0  0  0  0  0  0  0  0  0  0  0
    0.5015    0.9491   -1.0657 C   0  0  0  0  0  0  0  0  0  0  0  0
    0.6022    2.0055   -1.3507 H   0  0  0  0  0  0  0  0  0  0  0  0
    1.5479    0.5959   -0.9137 H   0  0  0  0  0  0  0  0  0  0  0  0
    0.0577    0.3318   -1.8535 H   0  0  0  0  0  0  0  0  0  0  0  0
  1  8  1  0  0  0  0
  1  4  1  0  0  0  0
  3  2  3  0  0  0  0
  4  6  1  0  0  0  0
  4  7  1  0  0  0  0
  5  4  1  0  0  0  0
  8 11  1  0  0  0  0
  9  8  1  0  0  0  0
 10  8  1  0  0  0  0
 12 14  1  0  0  0  0
 12  1  1  0  0  0  0
 13 12  1  0  0  0  0
 15 12  1  0  0  0  0
M  RAD  1   1   2
M  END
