Coordinates from ORCA-job tert-Butyl-N2+-scan-d09-169-n800
 OpenBabel09191813453D

 15 13  0  0  0  0  0  0  0  0999 V2000
   -0.3164    0.6195    0.0632 C   0  0  0  0  0  0  0  0  0  0  0  0
    0.5808   -3.0149    0.0523 N   0  0  0  0  0  0  0  0  0  0  0  0
    0.8930   -4.0693   -0.0445 N   0  0  0  0  0  0  0  0  0  0  0  0
    0.3968    0.7466    1.3362 C   0  0  0  0  0  0  0  0  0  0  0  0
    1.1136    1.5818    1.3182 H   0  0  0  0  0  0  0  0  0  0  0  0
   -0.2507    0.7753    2.2168 H   0  0  0  0  0  0  0  0  0  0  0  0
    1.0374   -0.1608    1.3919 H   0  0  0  0  0  0  0  0  0  0  0  0
   -1.7215    0.2115    0.0454 C   0  0  0  0  0  0  0  0  0  0  0  0
   -2.2021    0.2936   -0.9344 H   0  0  0  0  0  0  0  0  0  0  0  0
   -1.7025   -0.8637    0.3320 H   0  0  0  0  0  0  0  0  0  0  0  0
   -2.2989    0.7010    0.8429 H   0  0  0  0  0  0  0  0  0  0  0  0
    0.3901    0.8711   -1.1921 C   0  0  0  0  0  0  0  0  0  0  0  0
    0.0626    1.8968   -1.4782 H   0  0  0  0  0  0  0  0  0  0  0  0
    1.4813    0.8847   -1.0999 H   0  0  0  0  0  0  0  0  0  0  0  0
    0.0357    0.2276   -2.0093 H   0  0  0  0  0  0  0  0  0  0  0  0
  1  4  1  0  0  0  0
  3  2  3  0  0  0  0
  4  7  1  0  0  0  0
  4  6  1  0  0  0  0
  5  4  1  0  0  0  0
  8  1  1  0  0  0  0
  8 10  1  0  0  0  0
  8 11  1  0  0  0  0
  9  8  1  0  0  0  0
 12 14  1  0  0  0  0
 12  1  1  0  0  0  0
 13 12  1  0  0  0  0
 15 12  1  0  0  0  0
M  RAD  1   1   2
M  END
