Coordinates from ORCA-job tert-Butyl-N2+-scan-d09-169-n800
 OpenBabel09191813453D

 15 13  0  0  0  0  0  0  0  0999 V2000
   -0.1296    0.7429    0.2397 C   0  0  0  0  0  0  0  0  0  0  0  0
   -0.3424   -3.9728   -0.9369 N   0  0  0  0  0  0  0  0  0  0  0  0
   -0.3006   -5.0325   -1.2435 N   0  0  0  0  0  0  0  0  0  0  0  0
    0.1188    1.7331    1.2904 C   0  0  0  0  0  0  0  0  0  0  0  0
    0.9017    2.4572    1.0458 H   0  0  0  0  0  0  0  0  0  0  0  0
   -0.8415    2.2812    1.4131 H   0  0  0  0  0  0  0  0  0  0  0  0
    0.2810    1.2510    2.2660 H   0  0  0  0  0  0  0  0  0  0  0  0
   -1.0104   -0.3982    0.4951 C   0  0  0  0  0  0  0  0  0  0  0  0
   -1.9478   -0.1738   -0.0589 H   0  0  0  0  0  0  0  0  0  0  0  0
   -0.6366   -1.3141    0.0081 H   0  0  0  0  0  0  0  0  0  0  0  0
   -1.2516   -0.5565    1.5496 H   0  0  0  0  0  0  0  0  0  0  0  0
    0.4892    0.9009   -1.0764 C   0  0  0  0  0  0  0  0  0  0  0  0
    0.6017    1.9555   -1.3646 H   0  0  0  0  0  0  0  0  0  0  0  0
    1.5323    0.5388   -0.9257 H   0  0  0  0  0  0  0  0  0  0  0  0
    0.0350    0.2881   -1.8614 H   0  0  0  0  0  0  0  0  0  0  0  0
  1  8  1  0  0  0  0
  1  4  1  0  0  0  0
  3  2  3  0  0  0  0
  4  6  1  0  0  0  0
  4  7  1  0  0  0  0
  5  4  1  0  0  0  0
  8 11  1  0  0  0  0
  9  8  1  0  0  0  0
 10  8  1  0  0  0  0
 12 14  1  0  0  0  0
 12  1  1  0  0  0  0
 13 12  1  0  0  0  0
 15 12  1  0  0  0  0
M  RAD  1   1   2
M  END
