Coordinates from ORCA-job tert-Butyl-N2+-scan-d09-169-n800
 OpenBabel09191813453D

 15 13  0  0  0  0  0  0  0  0999 V2000
   -0.2941    0.4069    0.0560 C   0  0  0  0  0  0  0  0  0  0  0  0
    0.7137   -2.4428    0.0561 N   0  0  0  0  0  0  0  0  0  0  0  0
    1.0847   -3.4824    0.0561 N   0  0  0  0  0  0  0  0  0  0  0  0
    0.3777    0.7029    1.3266 C   0  0  0  0  0  0  0  0  0  0  0  0
    1.4701    0.6427    1.2637 H   0  0  0  0  0  0  0  0  0  0  0  0
    0.1381    1.7708    1.5275 H   0  0  0  0  0  0  0  0  0  0  0  0
   -0.0247    0.1332    2.1707 H   0  0  0  0  0  0  0  0  0  0  0  0
   -1.6933   -0.0353    0.0559 C   0  0  0  0  0  0  0  0  0  0  0  0
   -2.2856    0.9066    0.0558 H   0  0  0  0  0  0  0  0  0  0  0  0
   -1.9748   -0.5756   -0.8545 H   0  0  0  0  0  0  0  0  0  0  0  0
   -1.9749   -0.5756    0.9663 H   0  0  0  0  0  0  0  0  0  0  0  0
    0.3779    0.7028   -1.2145 C   0  0  0  0  0  0  0  0  0  0  0  0
    0.1384    1.7708   -1.4154 H   0  0  0  0  0  0  0  0  0  0  0  0
    1.4704    0.6426   -1.1514 H   0  0  0  0  0  0  0  0  0  0  0  0
   -0.0243    0.1332   -2.0586 H   0  0  0  0  0  0  0  0  0  0  0  0
  1  4  1  0  0  0  0
  2  3  3  0  0  0  0
  4  6  1  0  0  0  0
  4  7  1  0  0  0  0
  5  4  1  0  0  0  0
  8  1  1  0  0  0  0
  8 11  1  0  0  0  0
  9  8  1  0  0  0  0
 10  8  1  0  0  0  0
 12 14  1  0  0  0  0
 12  1  1  0  0  0  0
 13 12  1  0  0  0  0
 15 12  1  0  0  0  0
M  RAD  1   1   2
M  END
