Coordinates from ORCA-job tert-Butyl-N2+-scan-d09-169-n800
 OpenBabel09191813453D

 15 14  0  0  0  0  0  0  0  0999 V2000
   -0.1456   -0.0141    0.0560 C   0  0  0  0  0  0  0  0  0  0  0  0
    0.3963   -1.5417    0.0561 N   0  0  0  0  0  0  0  0  0  0  0  0
    0.7657   -2.5809    0.0560 N   0  0  0  0  0  0  0  0  0  0  0  0
    0.4368    0.5628    1.3396 C   0  0  0  0  0  0  0  0  0  0  0  0
    1.5328    0.5602    1.3360 H   0  0  0  0  0  0  0  0  0  0  0  0
    0.0988    1.6077    1.3804 H   0  0  0  0  0  0  0  0  0  0  0  0
    0.0580    0.0514    2.2313 H   0  0  0  0  0  0  0  0  0  0  0  0
   -1.6591   -0.1788    0.0559 C   0  0  0  0  0  0  0  0  0  0  0  0
   -2.0757    0.8381    0.0558 H   0  0  0  0  0  0  0  0  0  0  0  0
   -2.0181   -0.6928   -0.8425 H   0  0  0  0  0  0  0  0  0  0  0  0
   -2.0182   -0.6928    0.9543 H   0  0  0  0  0  0  0  0  0  0  0  0
    0.4371    0.5627   -1.2275 C   0  0  0  0  0  0  0  0  0  0  0  0
    0.0991    1.6076   -1.2684 H   0  0  0  0  0  0  0  0  0  0  0  0
    1.5330    0.5601   -1.2236 H   0  0  0  0  0  0  0  0  0  0  0  0
    0.0585    0.0512   -2.1191 H   0  0  0  0  0  0  0  0  0  0  0  0
  1  2  1  0  0  0  0
  1  4  1  0  0  0  0
  3  2  1  0  0  0  0
  4  6  1  0  0  0  0
  4  7  1  0  0  0  0
  5  4  1  0  0  0  0
  8  1  1  0  0  0  0
  8 11  1  0  0  0  0
  9  8  1  0  0  0  0
 10  8  1  0  0  0  0
 12 14  1  0  0  0  0
 12  1  1  0  0  0  0
 13 12  1  0  0  0  0
 15 12  1  0  0  0  0
M  RAD  2   2   2   3   3
M  END
