Coordinates from ORCA-job tert-Butyl-N2+-scan-d09-169-n800
 OpenBabel09191813453D

 15 13  0  0  0  0  0  0  0  0999 V2000
   -0.2527    0.6537    0.1092 C   0  0  0  0  0  0  0  0  0  0  0  0
    0.1201   -3.1998   -0.1988 N   0  0  0  0  0  0  0  0  0  0  0  0
    0.4254   -4.2552   -0.3052 N   0  0  0  0  0  0  0  0  0  0  0  0
    0.3815    1.1062    1.3494 C   0  0  0  0  0  0  0  0  0  0  0  0
    1.1727    1.8478    1.1931 H   0  0  0  0  0  0  0  0  0  0  0  0
   -0.3445    1.4084    2.1146 H   0  0  0  0  0  0  0  0  0  0  0  0
    0.8728    0.1914    1.7531 H   0  0  0  0  0  0  0  0  0  0  0  0
   -1.5240   -0.0669    0.1420 C   0  0  0  0  0  0  0  0  0  0  0  0
   -2.1314    0.1278   -0.7535 H   0  0  0  0  0  0  0  0  0  0  0  0
   -1.2239   -1.1359    0.0458 H   0  0  0  0  0  0  0  0  0  0  0  0
   -2.0892    0.0524    1.0709 H   0  0  0  0  0  0  0  0  0  0  0  0
    0.4134    0.8871   -1.1727 C   0  0  0  0  0  0  0  0  0  0  0  0
    0.1026    1.9233   -1.4399 H   0  0  0  0  0  0  0  0  0  0  0  0
    1.5075    0.9282   -1.0870 H   0  0  0  0  0  0  0  0  0  0  0  0
    0.0689    0.2324   -1.9805 H   0  0  0  0  0  0  0  0  0  0  0  0
  1  8  1  0  0  0  0
  1  4  1  0  0  0  0
  3  2  3  0  0  0  0
  4  7  1  0  0  0  0
  4  6  1  0  0  0  0
  5  4  1  0  0  0  0
  8 11  1  0  0  0  0
  9  8  1  0  0  0  0
 10  8  1  0  0  0  0
 12 14  1  0  0  0  0
 12  1  1  0  0  0  0
 13 12  1  0  0  0  0
 15 12  1  0  0  0  0
M  RAD  1   1   2
M  END
