Coordinates from ORCA-job tert-Butyl-N2+-scan-d09-169-n800
 OpenBabel09191813453D

 15 13  0  0  0  0  0  0  0  0999 V2000
   -0.2146    0.6741    0.1347 C   0  0  0  0  0  0  0  0  0  0  0  0
   -0.0363   -3.4151   -0.3699 N   0  0  0  0  0  0  0  0  0  0  0  0
    0.2085   -4.4797   -0.5281 N   0  0  0  0  0  0  0  0  0  0  0  0
    0.3460    1.2771    1.3466 C   0  0  0  0  0  0  0  0  0  0  0  0
    1.1648    1.9787    1.1623 H   0  0  0  0  0  0  0  0  0  0  0  0
   -0.4491    1.7174    1.9693 H   0  0  0  0  0  0  0  0  0  0  0  0
    0.7274    0.4314    1.9585 H   0  0  0  0  0  0  0  0  0  0  0  0
   -1.4022   -0.1736    0.2139 C   0  0  0  0  0  0  0  0  0  0  0  0
   -2.0740    0.0079   -0.6402 H   0  0  0  0  0  0  0  0  0  0  0  0
   -1.0308   -1.2088    0.0398 H   0  0  0  0  0  0  0  0  0  0  0  0
   -1.9272   -0.1331    1.1722 H   0  0  0  0  0  0  0  0  0  0  0  0
    0.4294    0.9033   -1.1593 C   0  0  0  0  0  0  0  0  0  0  0  0
    0.1442    1.9449   -1.4289 H   0  0  0  0  0  0  0  0  0  0  0  0
    1.5258    0.9374   -1.0720 H   0  0  0  0  0  0  0  0  0  0  0  0
    0.0872    0.2389   -1.9586 H   0  0  0  0  0  0  0  0  0  0  0  0
  1  8  1  0  0  0  0
  1  4  1  0  0  0  0
  3  2  3  0  0  0  0
  4  7  1  0  0  0  0
  4  6  1  0  0  0  0
  5  4  1  0  0  0  0
  8 11  1  0  0  0  0
  9  8  1  0  0  0  0
 10  8  1  0  0  0  0
 12 14  1  0  0  0  0
 12  1  1  0  0  0  0
 13 12  1  0  0  0  0
 15 12  1  0  0  0  0
M  RAD  1   1   2
M  END
