Coordinates from ORCA-job tert-Butyl-N2+-scan-d09-169-n800
 OpenBabel09191813453D

 15 13  0  0  0  0  0  0  0  0999 V2000
   -0.2176    0.1864    0.0561 C   0  0  0  0  0  0  0  0  0  0  0  0
    0.4920   -1.8130    0.0563 N   0  0  0  0  0  0  0  0  0  0  0  0
    0.8670   -2.8507    0.0550 N   0  0  0  0  0  0  0  0  0  0  0  0
    0.4182    0.5986    1.3310 C   0  0  0  0  0  0  0  0  0  0  0  0
    1.5126    0.5729    1.2967 H   0  0  0  0  0  0  0  0  0  0  0  0
    0.1244    1.6601    1.4489 H   0  0  0  0  0  0  0  0  0  0  0  0
    0.0267    0.0626    2.2012 H   0  0  0  0  0  0  0  0  0  0  0  0
   -1.6643   -0.1382    0.0560 C   0  0  0  0  0  0  0  0  0  0  0  0
   -2.1649    0.8500    0.0558 H   0  0  0  0  0  0  0  0  0  0  0  0
   -1.9892   -0.6602   -0.8498 H   0  0  0  0  0  0  0  0  0  0  0  0
   -1.9894   -0.6600    0.9618 H   0  0  0  0  0  0  0  0  0  0  0  0
    0.4186    0.5982   -1.2187 C   0  0  0  0  0  0  0  0  0  0  0  0
    0.1248    1.6597   -1.3369 H   0  0  0  0  0  0  0  0  0  0  0  0
    1.5129    0.5725   -1.1840 H   0  0  0  0  0  0  0  0  0  0  0  0
    0.0273    0.0620   -2.0888 H   0  0  0  0  0  0  0  0  0  0  0  0
  1  4  1  0  0  0  0
  3  2  3  0  0  0  0
  4  6  1  0  0  0  0
  4  7  1  0  0  0  0
  5  4  1  0  0  0  0
  8  1  1  0  0  0  0
  8 11  1  0  0  0  0
  9  8  1  0  0  0  0
 10  8  1  0  0  0  0
 12 14  1  0  0  0  0
 12  1  1  0  0  0  0
 13 12  1  0  0  0  0
 15 12  1  0  0  0  0
M  RAD  1   1   2
M  END
