Coordinates from ORCA-job tert-Butyl-N2+-scan-d09-169-n800
 OpenBabel09191813453D

 15 13  0  0  0  0  0  0  0  0999 V2000
   -0.3048    0.4470    0.0560 C   0  0  0  0  0  0  0  0  0  0  0  0
    0.7771   -2.6526    0.0561 N   0  0  0  0  0  0  0  0  0  0  0  0
    1.1404   -3.6949    0.0562 N   0  0  0  0  0  0  0  0  0  0  0  0
    0.3678    0.7382    1.3267 C   0  0  0  0  0  0  0  0  0  0  0  0
    1.4607    0.6845    1.2614 H   0  0  0  0  0  0  0  0  0  0  0  0
    0.1231    1.8036    1.5361 H   0  0  0  0  0  0  0  0  0  0  0  0
   -0.0309    0.1614    2.1679 H   0  0  0  0  0  0  0  0  0  0  0  0
   -1.7000   -0.0066    0.0559 C   0  0  0  0  0  0  0  0  0  0  0  0
   -2.3012    0.9300    0.0557 H   0  0  0  0  0  0  0  0  0  0  0  0
   -1.9772   -0.5490   -0.8548 H   0  0  0  0  0  0  0  0  0  0  0  0
   -1.9774   -0.5487    0.9666 H   0  0  0  0  0  0  0  0  0  0  0  0
    0.3681    0.7382   -1.2145 C   0  0  0  0  0  0  0  0  0  0  0  0
    0.1235    1.8037   -1.4239 H   0  0  0  0  0  0  0  0  0  0  0  0
    1.4609    0.6844   -1.1491 H   0  0  0  0  0  0  0  0  0  0  0  0
   -0.0306    0.1615   -2.0559 H   0  0  0  0  0  0  0  0  0  0  0  0
  1  4  1  0  0  0  0
  2  3  3  0  0  0  0
  4  6  1  0  0  0  0
  4  7  1  0  0  0  0
  5  4  1  0  0  0  0
  8  1  1  0  0  0  0
  8 11  1  0  0  0  0
  9  8  1  0  0  0  0
 10  8  1  0  0  0  0
 12 14  1  0  0  0  0
 12  1  1  0  0  0  0
 13 12  1  0  0  0  0
 15 12  1  0  0  0  0
M  RAD  1   1   2
M  END
