Coordinates from ORCA-job tert-Butyl-N2+-scan-d09-169-n800
 OpenBabel09191813453D

 15 13  0  0  0  0  0  0  0  0999 V2000
   -0.3342    0.5379    0.0611 C   0  0  0  0  0  0  0  0  0  0  0  0
    0.7634   -2.7467    0.0887 N   0  0  0  0  0  0  0  0  0  0  0  0
    1.0799   -3.8018    0.0175 N   0  0  0  0  0  0  0  0  0  0  0  0
    0.3467    0.8563    1.3139 C   0  0  0  0  0  0  0  0  0  0  0  0
    1.2402    1.4788    1.1948 H   0  0  0  0  0  0  0  0  0  0  0  0
   -0.3342    1.2205    2.0941 H   0  0  0  0  0  0  0  0  0  0  0  0
    0.6911   -0.1436    1.6673 H   0  0  0  0  0  0  0  0  0  0  0  0
   -1.7359    0.1142    0.0747 C   0  0  0  0  0  0  0  0  0  0  0  0
   -2.3045    0.9946   -0.3001 H   0  0  0  0  0  0  0  0  0  0  0  0
   -1.9317   -0.6791   -0.6598 H   0  0  0  0  0  0  0  0  0  0  0  0
   -2.1162   -0.1284    1.0718 H   0  0  0  0  0  0  0  0  0  0  0  0
    0.3849    0.6711   -1.2089 C   0  0  0  0  0  0  0  0  0  0  0  0
    0.3890    1.7624   -1.4226 H   0  0  0  0  0  0  0  0  0  0  0  0
    1.4476    0.4097   -1.1027 H   0  0  0  0  0  0  0  0  0  0  0  0
   -0.0870    0.1547   -2.0495 H   0  0  0  0  0  0  0  0  0  0  0  0
  1  8  1  0  0  0  0
  1  4  1  0  0  0  0
  3  2  3  0  0  0  0
  4  7  1  0  0  0  0
  4  6  1  0  0  0  0
  5  4  1  0  0  0  0
  8 11  1  0  0  0  0
  9  8  1  0  0  0  0
 10  8  1  0  0  0  0
 12 14  1  0  0  0  0
 12  1  1  0  0  0  0
 13 12  1  0  0  0  0
 15 12  1  0  0  0  0
M  RAD  1   1   2
M  END
