Coordinates from ORCA-job tert-Butyl-N2+-scan-d09-169-n800
 OpenBabel09191813453D

 15 13  0  0  0  0  0  0  0  0999 V2000
   -0.1061    0.8259    0.2740 C   0  0  0  0  0  0  0  0  0  0  0  0
   -0.4427   -4.5320   -1.1171 N   0  0  0  0  0  0  0  0  0  0  0  0
   -0.4434   -5.5848   -1.4498 N   0  0  0  0  0  0  0  0  0  0  0  0
    0.0779    1.8564    1.2987 C   0  0  0  0  0  0  0  0  0  0  0  0
    0.8667    2.5782    1.0630 H   0  0  0  0  0  0  0  0  0  0  0  0
   -0.8883    2.4102    1.3182 H   0  0  0  0  0  0  0  0  0  0  0  0
    0.1776    1.4293    2.3058 H   0  0  0  0  0  0  0  0  0  0  0  0
   -0.9254   -0.3562    0.5507 C   0  0  0  0  0  0  0  0  0  0  0  0
   -1.8957   -0.1554    0.0445 H   0  0  0  0  0  0  0  0  0  0  0  0
   -0.5403   -1.2499    0.0358 H   0  0  0  0  0  0  0  0  0  0  0  0
   -1.1204   -0.5343    1.6119 H   0  0  0  0  0  0  0  0  0  0  0  0
    0.5091    0.9870   -1.0432 C   0  0  0  0  0  0  0  0  0  0  0  0
    0.6141    2.0390   -1.3410 H   0  0  0  0  0  0  0  0  0  0  0  0
    1.5528    0.6267   -0.8880 H   0  0  0  0  0  0  0  0  0  0  0  0
    0.0634    0.3606   -1.8231 H   0  0  0  0  0  0  0  0  0  0  0  0
  1  8  1  0  0  0  0
  1  4  1  0  0  0  0
  3  2  3  0  0  0  0
  4  6  1  0  0  0  0
  4  7  1  0  0  0  0
  5  4  1  0  0  0  0
  8 11  1  0  0  0  0
  9  8  1  0  0  0  0
 10  8  1  0  0  0  0
 12 14  1  0  0  0  0
 12  1  1  0  0  0  0
 13 12  1  0  0  0  0
 15 12  1  0  0  0  0
M  RAD  1   1   2
M  END
