Coordinates from ORCA-job tert-Butyl-N2+-scan-d09-169-n800
 OpenBabel09191813453D

 15 14  0  0  0  0  0  0  0  0999 V2000
   -0.1609    0.0293    0.0561 C   0  0  0  0  0  0  0  0  0  0  0  0
    0.4141   -1.5929    0.0562 N   0  0  0  0  0  0  0  0  0  0  0  0
    0.7836   -2.6317    0.0558 N   0  0  0  0  0  0  0  0  0  0  0  0
    0.4335    0.5690    1.3378 C   0  0  0  0  0  0  0  0  0  0  0  0
    1.5292    0.5630    1.3277 H   0  0  0  0  0  0  0  0  0  0  0  0
    0.1034    1.6174    1.3963 H   0  0  0  0  0  0  0  0  0  0  0  0
    0.0533    0.0513    2.2249 H   0  0  0  0  0  0  0  0  0  0  0  0
   -1.6595   -0.1711    0.0559 C   0  0  0  0  0  0  0  0  0  0  0  0
   -2.0942    0.8401    0.0558 H   0  0  0  0  0  0  0  0  0  0  0  0
   -2.0118   -0.6868   -0.8440 H   0  0  0  0  0  0  0  0  0  0  0  0
   -2.0120   -0.6867    0.9558 H   0  0  0  0  0  0  0  0  0  0  0  0
    0.4338    0.5688   -1.2256 C   0  0  0  0  0  0  0  0  0  0  0  0
    0.1037    1.6172   -1.2844 H   0  0  0  0  0  0  0  0  0  0  0  0
    1.5295    0.5628   -1.2153 H   0  0  0  0  0  0  0  0  0  0  0  0
    0.0538    0.0510   -2.1128 H   0  0  0  0  0  0  0  0  0  0  0  0
  1  2  1  0  0  0  0
  1  4  1  0  0  0  0
  3  2  1  0  0  0  0
  4  6  1  0  0  0  0
  4  7  1  0  0  0  0
  5  4  1  0  0  0  0
  8  1  1  0  0  0  0
  8 11  1  0  0  0  0
  9  8  1  0  0  0  0
 10  8  1  0  0  0  0
 12 14  1  0  0  0  0
 12  1  1  0  0  0  0
 13 12  1  0  0  0  0
 15 12  1  0  0  0  0
M  RAD  2   2   2   3   3
M  END
