Coordinates from ORCA-job tert-Butyl-N2+-scan-d09-169-n800
 OpenBabel09191813453D

 15 14  0  0  0  0  0  0  0  0999 V2000
   -0.0320   -0.3349    0.0560 C   0  0  0  0  0  0  0  0  0  0  0  0
    0.2694   -1.1830    0.0561 N   0  0  0  0  0  0  0  0  0  0  0  0
    0.6540   -2.2657    0.0561 N   0  0  0  0  0  0  0  0  0  0  0  0
    0.4604    0.5432    1.3685 C   0  0  0  0  0  0  0  0  0  0  0  0
    1.5549    0.5390    1.3477 H   0  0  0  0  0  0  0  0  0  0  0  0
    0.0457    1.5474    1.2709 H   0  0  0  0  0  0  0  0  0  0  0  0
    0.0749    0.0189    2.2482 H   0  0  0  0  0  0  0  0  0  0  0  0
   -1.6802   -0.2121    0.0559 C   0  0  0  0  0  0  0  0  0  0  0  0
   -1.9340    0.8487    0.0562 H   0  0  0  0  0  0  0  0  0  0  0  0
   -2.0251   -0.7243   -0.8475 H   0  0  0  0  0  0  0  0  0  0  0  0
   -2.0253   -0.7248    0.9591 H   0  0  0  0  0  0  0  0  0  0  0  0
    0.4606    0.5432   -1.2564 C   0  0  0  0  0  0  0  0  0  0  0  0
    0.0451    1.5471   -1.1594 H   0  0  0  0  0  0  0  0  0  0  0  0
    1.5550    0.5396   -1.2350 H   0  0  0  0  0  0  0  0  0  0  0  0
    0.0759    0.0183   -2.1361 H   0  0  0  0  0  0  0  0  0  0  0  0
  1  2  1  0  0  0  0
  1  4  1  0  0  0  0
  2  3  1  0  0  0  0
  4  7  1  0  0  0  0
  5  4  1  0  0  0  0
  6  4  1  0  0  0  0
  8  1  1  0  0  0  0
  8  9  1  0  0  0  0
  8 11  1  0  0  0  0
 10  8  1  0  0  0  0
 12 14  1  0  0  0  0
 12 13  1  0  0  0  0
 12  1  1  0  0  0  0
 15 12  1  0  0  0  0
M  RAD  2   2   2   3   3
M  END
