Coordinates from ORCA-job tert-Butyl-N2+-scan-d09-169-n800
 OpenBabel09191813453D

 15 13  0  0  0  0  0  0  0  0999 V2000
   -0.2465    0.6586    0.1115 C   0  0  0  0  0  0  0  0  0  0  0  0
    0.0872   -3.2373   -0.2148 N   0  0  0  0  0  0  0  0  0  0  0  0
    0.3778   -4.2965   -0.3239 N   0  0  0  0  0  0  0  0  0  0  0  0
    0.3774    1.1304    1.3498 C   0  0  0  0  0  0  0  0  0  0  0  0
    1.1627    1.8774    1.1903 H   0  0  0  0  0  0  0  0  0  0  0  0
   -0.3570    1.4356    2.1062 H   0  0  0  0  0  0  0  0  0  0  0  0
    0.8715    0.2245    1.7697 H   0  0  0  0  0  0  0  0  0  0  0  0
   -1.5043   -0.0847    0.1472 C   0  0  0  0  0  0  0  0  0  0  0  0
   -2.1179    0.1035   -0.7457 H   0  0  0  0  0  0  0  0  0  0  0  0
   -1.1878   -1.1483    0.0443 H   0  0  0  0  0  0  0  0  0  0  0  0
   -2.0684    0.0221    1.0782 H   0  0  0  0  0  0  0  0  0  0  0  0
    0.4166    0.8973   -1.1710 C   0  0  0  0  0  0  0  0  0  0  0  0
    0.0988    1.9312   -1.4385 H   0  0  0  0  0  0  0  0  0  0  0  0
    1.5105    0.9481   -1.0845 H   0  0  0  0  0  0  0  0  0  0  0  0
    0.0787    0.2388   -1.9783 H   0  0  0  0  0  0  0  0  0  0  0  0
  1  8  1  0  0  0  0
  1  4  1  0  0  0  0
  3  2  3  0  0  0  0
  4  7  1  0  0  0  0
  4  6  1  0  0  0  0
  5  4  1  0  0  0  0
  8 11  1  0  0  0  0
  9  8  1  0  0  0  0
 10  8  1  0  0  0  0
 12 14  1  0  0  0  0
 12  1  1  0  0  0  0
 13 12  1  0  0  0  0
 15 12  1  0  0  0  0
M  RAD  1   1   2
M  END
