Coordinates from ORCA-job tert-Butyl-N2+-scan-d09-169-n800
 OpenBabel09191813453D

 15 13  0  0  0  0  0  0  0  0999 V2000
   -0.1825    0.7020    0.1450 C   0  0  0  0  0  0  0  0  0  0  0  0
   -0.1511   -3.6822   -0.4495 N   0  0  0  0  0  0  0  0  0  0  0  0
   -0.0113   -4.7617   -0.6322 N   0  0  0  0  0  0  0  0  0  0  0  0
    0.3219    1.3734    1.3461 C   0  0  0  0  0  0  0  0  0  0  0  0
    1.2148    1.9834    1.1840 H   0  0  0  0  0  0  0  0  0  0  0  0
   -0.5055    2.0121    1.7190 H   0  0  0  0  0  0  0  0  0  0  0  0
    0.4710    0.6398    2.1567 H   0  0  0  0  0  0  0  0  0  0  0  0
   -1.2593   -0.2782    0.2565 C   0  0  0  0  0  0  0  0  0  0  0  0
   -1.9819   -0.1750   -0.5681 H   0  0  0  0  0  0  0  0  0  0  0  0
   -0.7772   -1.2642    0.0610 H   0  0  0  0  0  0  0  0  0  0  0  0
   -1.7422   -0.3126    1.2373 H   0  0  0  0  0  0  0  0  0  0  0  0
    0.3947    1.0136   -1.1648 C   0  0  0  0  0  0  0  0  0  0  0  0
    0.2355    2.0964   -1.3433 H   0  0  0  0  0  0  0  0  0  0  0  0
    1.4943    0.9203   -1.1154 H   0  0  0  0  0  0  0  0  0  0  0  0
   -0.0219    0.4336   -1.9921 H   0  0  0  0  0  0  0  0  0  0  0  0
  1  8  1  0  0  0  0
  1  4  1  0  0  0  0
  3  2  3  0  0  0  0
  4  6  1  0  0  0  0
  4  7  1  0  0  0  0
  5  4  1  0  0  0  0
  8 11  1  0  0  0  0
  9  8  1  0  0  0  0
 10  8  1  0  0  0  0
 12 14  1  0  0  0  0
 12  1  1  0  0  0  0
 13 12  1  0  0  0  0
 15 12  1  0  0  0  0
M  RAD  1   1   2
M  END
