Coordinates from ORCA-job tert-Butyl-N2+-scan-d09-169-n800
 OpenBabel09191813453D

 15 13  0  0  0  0  0  0  0  0999 V2000
   -0.3096    0.6072    0.0657 C   0  0  0  0  0  0  0  0  0  0  0  0
    0.5833   -2.9866    0.0105 N   0  0  0  0  0  0  0  0  0  0  0  0
    0.8661   -4.0488   -0.0909 N   0  0  0  0  0  0  0  0  0  0  0  0
    0.3986    0.7363    1.3409 C   0  0  0  0  0  0  0  0  0  0  0  0
    1.0994    1.5852    1.3322 H   0  0  0  0  0  0  0  0  0  0  0  0
   -0.2516    0.7438    2.2203 H   0  0  0  0  0  0  0  0  0  0  0  0
    1.0562   -0.1593    1.3891 H   0  0  0  0  0  0  0  0  0  0  0  0
   -1.7150    0.1976    0.0479 C   0  0  0  0  0  0  0  0  0  0  0  0
   -2.1711    0.1874   -0.9460 H   0  0  0  0  0  0  0  0  0  0  0  0
   -1.7395   -0.8277    0.4725 H   0  0  0  0  0  0  0  0  0  0  0  0
   -2.2995    0.7957    0.7663 H   0  0  0  0  0  0  0  0  0  0  0  0
    0.3962    0.8702   -1.1872 C   0  0  0  0  0  0  0  0  0  0  0  0
    0.0309    1.8763   -1.4957 H   0  0  0  0  0  0  0  0  0  0  0  0
    1.4855    0.9230   -1.0896 H   0  0  0  0  0  0  0  0  0  0  0  0
    0.0695    0.2005   -1.9955 H   0  0  0  0  0  0  0  0  0  0  0  0
  1  4  1  0  0  0  0
  3  2  3  0  0  0  0
  4  7  1  0  0  0  0
  4  6  1  0  0  0  0
  5  4  1  0  0  0  0
  8  1  1  0  0  0  0
  8 10  1  0  0  0  0
  8 11  1  0  0  0  0
  9  8  1  0  0  0  0
 12 14  1  0  0  0  0
 12  1  1  0  0  0  0
 13 12  1  0  0  0  0
 15 12  1  0  0  0  0
M  RAD  1   1   2
M  END
