Coordinates from ORCA-job tert-Butyl-N2+-scan-d09-169-n800
 OpenBabel09191813453D

 15 13  0  0  0  0  0  0  0  0999 V2000
   -0.3089    0.5986    0.0689 C   0  0  0  0  0  0  0  0  0  0  0  0
    0.5863   -2.9323   -0.0044 N   0  0  0  0  0  0  0  0  0  0  0  0
    0.8555   -3.9974   -0.1135 N   0  0  0  0  0  0  0  0  0  0  0  0
    0.3976    0.7335    1.3445 C   0  0  0  0  0  0  0  0  0  0  0  0
    1.0964    1.5841    1.3323 H   0  0  0  0  0  0  0  0  0  0  0  0
   -0.2536    0.7445    2.2230 H   0  0  0  0  0  0  0  0  0  0  0  0
    1.0578   -0.1597    1.3974 H   0  0  0  0  0  0  0  0  0  0  0  0
   -1.7160    0.1953    0.0509 C   0  0  0  0  0  0  0  0  0  0  0  0
   -2.1709    0.1828   -0.9435 H   0  0  0  0  0  0  0  0  0  0  0  0
   -1.7451   -0.8284    0.4794 H   0  0  0  0  0  0  0  0  0  0  0  0
   -2.2988    0.7985    0.7664 H   0  0  0  0  0  0  0  0  0  0  0  0
    0.4000    0.8509   -1.1846 C   0  0  0  0  0  0  0  0  0  0  0  0
    0.0346    1.8533   -1.5041 H   0  0  0  0  0  0  0  0  0  0  0  0
    1.4890    0.9043   -1.0852 H   0  0  0  0  0  0  0  0  0  0  0  0
    0.0754    0.1729   -1.9870 H   0  0  0  0  0  0  0  0  0  0  0  0
  1  4  1  0  0  0  0
  3  2  3  0  0  0  0
  4  7  1  0  0  0  0
  4  6  1  0  0  0  0
  5  4  1  0  0  0  0
  8  1  1  0  0  0  0
  8 10  1  0  0  0  0
  8 11  1  0  0  0  0
  9  8  1  0  0  0  0
 12 14  1  0  0  0  0
 12  1  1  0  0  0  0
 13 12  1  0  0  0  0
 15 12  1  0  0  0  0
M  RAD  1   1   2
M  END
