Coordinates from ORCA-job tert-Butyl-N2+-scan-d09-169-n800
 OpenBabel09191813453D

 15 13  0  0  0  0  0  0  0  0999 V2000
   -0.3036    0.4411    0.0560 C   0  0  0  0  0  0  0  0  0  0  0  0
    0.7686   -2.6195    0.0561 N   0  0  0  0  0  0  0  0  0  0  0  0
    1.1335   -3.6612    0.0562 N   0  0  0  0  0  0  0  0  0  0  0  0
    0.3692    0.7324    1.3267 C   0  0  0  0  0  0  0  0  0  0  0  0
    1.4619    0.6767    1.2617 H   0  0  0  0  0  0  0  0  0  0  0  0
    0.1262    1.7984    1.5349 H   0  0  0  0  0  0  0  0  0  0  0  0
   -0.0306    0.1569    2.1683 H   0  0  0  0  0  0  0  0  0  0  0  0
   -1.6995   -0.0105    0.0559 C   0  0  0  0  0  0  0  0  0  0  0  0
   -2.2992    0.9270    0.0557 H   0  0  0  0  0  0  0  0  0  0  0  0
   -1.9774   -0.5525   -0.8548 H   0  0  0  0  0  0  0  0  0  0  0  0
   -1.9776   -0.5523    0.9666 H   0  0  0  0  0  0  0  0  0  0  0  0
    0.3694    0.7323   -1.2145 C   0  0  0  0  0  0  0  0  0  0  0  0
    0.1266    1.7984   -1.4228 H   0  0  0  0  0  0  0  0  0  0  0  0
    1.4621    0.6766   -1.1494 H   0  0  0  0  0  0  0  0  0  0  0  0
   -0.0303    0.1569   -2.0562 H   0  0  0  0  0  0  0  0  0  0  0  0
  1  4  1  0  0  0  0
  2  3  3  0  0  0  0
  4  6  1  0  0  0  0
  4  7  1  0  0  0  0
  5  4  1  0  0  0  0
  8  1  1  0  0  0  0
  8 11  1  0  0  0  0
  9  8  1  0  0  0  0
 10  8  1  0  0  0  0
 12 14  1  0  0  0  0
 12  1  1  0  0  0  0
 13 12  1  0  0  0  0
 15 12  1  0  0  0  0
M  RAD  1   1   2
M  END
