Coordinates from ORCA-job tert-Butyl-N2+-scan-d09-169-n800
 OpenBabel09191813453D

 15 14  0  0  0  0  0  0  0  0999 V2000
   -0.1759    0.0714    0.0561 C   0  0  0  0  0  0  0  0  0  0  0  0
    0.4325   -1.6451    0.0562 N   0  0  0  0  0  0  0  0  0  0  0  0
    0.8028   -2.6837    0.0555 N   0  0  0  0  0  0  0  0  0  0  0  0
    0.4300    0.5755    1.3360 C   0  0  0  0  0  0  0  0  0  0  0  0
    1.5254    0.5655    1.3193 H   0  0  0  0  0  0  0  0  0  0  0  0
    0.1081    1.6273    1.4107 H   0  0  0  0  0  0  0  0  0  0  0  0
    0.0475    0.0523    2.2186 H   0  0  0  0  0  0  0  0  0  0  0  0
   -1.6602   -0.1634    0.0559 C   0  0  0  0  0  0  0  0  0  0  0  0
   -2.1119    0.8423    0.0558 H   0  0  0  0  0  0  0  0  0  0  0  0
   -2.0056   -0.6805   -0.8455 H   0  0  0  0  0  0  0  0  0  0  0  0
   -2.0058   -0.6804    0.9574 H   0  0  0  0  0  0  0  0  0  0  0  0
    0.4303    0.5752   -1.2238 C   0  0  0  0  0  0  0  0  0  0  0  0
    0.1085    1.6271   -1.2988 H   0  0  0  0  0  0  0  0  0  0  0  0
    1.5257    0.5652   -1.2068 H   0  0  0  0  0  0  0  0  0  0  0  0
    0.0481    0.0519   -2.1063 H   0  0  0  0  0  0  0  0  0  0  0  0
  1  2  1  0  0  0  0
  1  4  1  0  0  0  0
  3  2  1  0  0  0  0
  4  6  1  0  0  0  0
  4  7  1  0  0  0  0
  5  4  1  0  0  0  0
  8  1  1  0  0  0  0
  8 11  1  0  0  0  0
  9  8  1  0  0  0  0
 10  8  1  0  0  0  0
 12 14  1  0  0  0  0
 12  1  1  0  0  0  0
 13 12  1  0  0  0  0
 15 12  1  0  0  0  0
M  RAD  2   2   2   3   3
M  END
