Coordinates from ORCA-job tert-Butyl-N2+-scan-d09-169-n800
 OpenBabel09191813453D

 15 13  0  0  0  0  0  0  0  0999 V2000
   -0.2004    0.6828    0.1479 C   0  0  0  0  0  0  0  0  0  0  0  0
   -0.0841   -3.4976   -0.4478 N   0  0  0  0  0  0  0  0  0  0  0  0
    0.1159   -4.5661   -0.6386 N   0  0  0  0  0  0  0  0  0  0  0  0
    0.3291    1.3401    1.3456 C   0  0  0  0  0  0  0  0  0  0  0  0
    1.1529    2.0332    1.1531 H   0  0  0  0  0  0  0  0  0  0  0  0
   -0.4893    1.8192    1.9090 H   0  0  0  0  0  0  0  0  0  0  0  0
    0.6749    0.5320    2.0236 H   0  0  0  0  0  0  0  0  0  0  0  0
   -1.3566   -0.2055    0.2465 C   0  0  0  0  0  0  0  0  0  0  0  0
   -2.0407   -0.0545   -0.6042 H   0  0  0  0  0  0  0  0  0  0  0  0
   -0.9560   -1.2307    0.0797 H   0  0  0  0  0  0  0  0  0  0  0  0
   -1.8764   -0.1699    1.2079 H   0  0  0  0  0  0  0  0  0  0  0  0
    0.4387    0.9041   -1.1498 C   0  0  0  0  0  0  0  0  0  0  0  0
    0.1503    1.9409   -1.4327 H   0  0  0  0  0  0  0  0  0  0  0  0
    1.5351    0.9476   -1.0595 H   0  0  0  0  0  0  0  0  0  0  0  0
    0.1059    0.2252   -1.9405 H   0  0  0  0  0  0  0  0  0  0  0  0
  1  8  1  0  0  0  0
  1  4  1  0  0  0  0
  3  2  3  0  0  0  0
  4  6  1  0  0  0  0
  4  7  1  0  0  0  0
  5  4  1  0  0  0  0
  8 11  1  0  0  0  0
  9  8  1  0  0  0  0
 10  8  1  0  0  0  0
 12 14  1  0  0  0  0
 12  1  1  0  0  0  0
 13 12  1  0  0  0  0
 15 12  1  0  0  0  0
M  RAD  1   1   2
M  END
