Coordinates from ORCA-job tert-Butyl-N2+-scan-d09-169-n800
 OpenBabel09191813453D

 15 14  0  0  0  0  0  0  0  0999 V2000
   -0.1517    0.0034    0.0561 C   0  0  0  0  0  0  0  0  0  0  0  0
    0.4033   -1.5621    0.0561 N   0  0  0  0  0  0  0  0  0  0  0  0
    0.7727   -2.6010    0.0560 N   0  0  0  0  0  0  0  0  0  0  0  0
    0.4355    0.5653    1.3389 C   0  0  0  0  0  0  0  0  0  0  0  0
    1.5314    0.5613    1.3327 H   0  0  0  0  0  0  0  0  0  0  0  0
    0.1007    1.6116    1.3870 H   0  0  0  0  0  0  0  0  0  0  0  0
    0.0562    0.0513    2.2288 H   0  0  0  0  0  0  0  0  0  0  0  0
   -1.6593   -0.1758    0.0559 C   0  0  0  0  0  0  0  0  0  0  0  0
   -2.0833    0.8389    0.0558 H   0  0  0  0  0  0  0  0  0  0  0  0
   -2.0156   -0.6905   -0.8431 H   0  0  0  0  0  0  0  0  0  0  0  0
   -2.0157   -0.6904    0.9549 H   0  0  0  0  0  0  0  0  0  0  0  0
    0.4358    0.5651   -1.2267 C   0  0  0  0  0  0  0  0  0  0  0  0
    0.1009    1.6114   -1.2750 H   0  0  0  0  0  0  0  0  0  0  0  0
    1.5316    0.5612   -1.2203 H   0  0  0  0  0  0  0  0  0  0  0  0
    0.0567    0.0510   -2.1166 H   0  0  0  0  0  0  0  0  0  0  0  0
  1  2  1  0  0  0  0
  1  4  1  0  0  0  0
  3  2  1  0  0  0  0
  4  6  1  0  0  0  0
  4  7  1  0  0  0  0
  5  4  1  0  0  0  0
  8  1  1  0  0  0  0
  8 11  1  0  0  0  0
  9  8  1  0  0  0  0
 10  8  1  0  0  0  0
 12 14  1  0  0  0  0
 12  1  1  0  0  0  0
 13 12  1  0  0  0  0
 15 12  1  0  0  0  0
M  RAD  2   2   2   3   3
M  END
