Coordinates from ORCA-job tert-Butyl-N2+-scan-d09-169-n800
 OpenBabel09191813453D

 15 13  0  0  0  0  0  0  0  0999 V2000
   -0.1268    0.7480    0.2409 C   0  0  0  0  0  0  0  0  0  0  0  0
   -0.3547   -4.0064   -0.9437 N   0  0  0  0  0  0  0  0  0  0  0  0
   -0.3187   -5.0662   -1.2504 N   0  0  0  0  0  0  0  0  0  0  0  0
    0.1139    1.7406    1.2911 C   0  0  0  0  0  0  0  0  0  0  0  0
    0.8939    2.4681    1.0475 H   0  0  0  0  0  0  0  0  0  0  0  0
   -0.8492    2.2847    1.4092 H   0  0  0  0  0  0  0  0  0  0  0  0
    0.2751    1.2611    2.2681 H   0  0  0  0  0  0  0  0  0  0  0  0
   -1.0006   -0.3988    0.4960 C   0  0  0  0  0  0  0  0  0  0  0  0
   -1.9413   -0.1763   -0.0534 H   0  0  0  0  0  0  0  0  0  0  0  0
   -0.6247   -1.3114    0.0050 H   0  0  0  0  0  0  0  0  0  0  0  0
   -1.2378   -0.5609    1.5508 H   0  0  0  0  0  0  0  0  0  0  0  0
    0.4920    0.9092   -1.0747 C   0  0  0  0  0  0  0  0  0  0  0  0
    0.6018    1.9643   -1.3623 H   0  0  0  0  0  0  0  0  0  0  0  0
    1.5360    0.5495   -0.9234 H   0  0  0  0  0  0  0  0  0  0  0  0
    0.0404    0.2952   -1.8604 H   0  0  0  0  0  0  0  0  0  0  0  0
  1  8  1  0  0  0  0
  1  4  1  0  0  0  0
  3  2  3  0  0  0  0
  4  6  1  0  0  0  0
  4  7  1  0  0  0  0
  5  4  1  0  0  0  0
  8 11  1  0  0  0  0
  9  8  1  0  0  0  0
 10  8  1  0  0  0  0
 12 14  1  0  0  0  0
 12  1  1  0  0  0  0
 13 12  1  0  0  0  0
 15 12  1  0  0  0  0
M  RAD  1   1   2
M  END
