Coordinates from ORCA-job tert-Butyl-N2+-scan-d09-169-n800
 OpenBabel09191813453D

 15 13  0  0  0  0  0  0  0  0999 V2000
   -0.1175    0.7706    0.2471 C   0  0  0  0  0  0  0  0  0  0  0  0
   -0.3976   -4.1571   -0.9772 N   0  0  0  0  0  0  0  0  0  0  0  0
   -0.3789   -5.2170   -1.2852 N   0  0  0  0  0  0  0  0  0  0  0  0
    0.0982    1.7711    1.2952 C   0  0  0  0  0  0  0  0  0  0  0  0
    0.8731    2.5060    1.0568 H   0  0  0  0  0  0  0  0  0  0  0  0
   -0.8720    2.3078    1.3906 H   0  0  0  0  0  0  0  0  0  0  0  0
    0.2485    1.3024    2.2787 H   0  0  0  0  0  0  0  0  0  0  0  0
   -0.9671   -0.3945    0.5020 C   0  0  0  0  0  0  0  0  0  0  0  0
   -1.9186   -0.1807   -0.0326 H   0  0  0  0  0  0  0  0  0  0  0  0
   -0.5831   -1.2959   -0.0023 H   0  0  0  0  0  0  0  0  0  0  0  0
   -1.1904   -0.5696    1.5578 H   0  0  0  0  0  0  0  0  0  0  0  0
    0.5004    0.9430   -1.0674 C   0  0  0  0  0  0  0  0  0  0  0  0
    0.6019    1.9993   -1.3526 H   0  0  0  0  0  0  0  0  0  0  0  0
    1.5465    0.5894   -0.9154 H   0  0  0  0  0  0  0  0  0  0  0  0
    0.0559    0.3261   -1.8551 H   0  0  0  0  0  0  0  0  0  0  0  0
  1  8  1  0  0  0  0
  1  4  1  0  0  0  0
  3  2  3  0  0  0  0
  4  6  1  0  0  0  0
  4  7  1  0  0  0  0
  5  4  1  0  0  0  0
  8 11  1  0  0  0  0
  9  8  1  0  0  0  0
 10  8  1  0  0  0  0
 12 14  1  0  0  0  0
 12  1  1  0  0  0  0
 13 12  1  0  0  0  0
 15 12  1  0  0  0  0
M  RAD  1   1   2
M  END
