Coordinates from ORCA-job tert-Butyl-N2+-scan-d09-169-n800
 OpenBabel09191813453D

 15 13  0  0  0  0  0  0  0  0999 V2000
   -0.3557    0.5695    0.0560 C   0  0  0  0  0  0  0  0  0  0  0  0
    0.8705   -2.8388    0.1500 N   0  0  0  0  0  0  0  0  0  0  0  0
    1.2048   -3.8888    0.0835 N   0  0  0  0  0  0  0  0  0  0  0  0
    0.3554    0.8126    1.3082 C   0  0  0  0  0  0  0  0  0  0  0  0
    1.2855    1.3799    1.1972 H   0  0  0  0  0  0  0  0  0  0  0  0
   -0.2961    1.2029    2.1013 H   0  0  0  0  0  0  0  0  0  0  0  0
    0.6322   -0.2157    1.6396 H   0  0  0  0  0  0  0  0  0  0  0  0
   -1.7650    0.1710    0.0718 C   0  0  0  0  0  0  0  0  0  0  0  0
   -2.3295    0.9778   -0.4408 H   0  0  0  0  0  0  0  0  0  0  0  0
   -1.9164   -0.7074   -0.5769 H   0  0  0  0  0  0  0  0  0  0  0  0
   -2.1780    0.0170    1.0723 H   0  0  0  0  0  0  0  0  0  0  0  0
    0.3465    0.7261   -1.2206 C   0  0  0  0  0  0  0  0  0  0  0  0
    0.4279    1.8238   -1.3754 H   0  0  0  0  0  0  0  0  0  0  0  0
    1.3896    0.3842   -1.1486 H   0  0  0  0  0  0  0  0  0  0  0  0
   -0.1725    0.2867   -2.0772 H   0  0  0  0  0  0  0  0  0  0  0  0
  1  8  1  0  0  0  0
  1  4  1  0  0  0  0
  3  2  3  0  0  0  0
  4  7  1  0  0  0  0
  4  6  1  0  0  0  0
  5  4  1  0  0  0  0
  8 11  1  0  0  0  0
  9  8  1  0  0  0  0
 10  8  1  0  0  0  0
 12 14  1  0  0  0  0
 12  1  1  0  0  0  0
 13 12  1  0  0  0  0
 15 12  1  0  0  0  0
M  RAD  1   1   2
M  END
