Coordinates from ORCA-job tert-Butyl-N2+-scan-d09-169-n800
 OpenBabel09191813453D

 15 14  0  0  0  0  0  0  0  0999 V2000
   -0.1425   -0.0229    0.0560 C   0  0  0  0  0  0  0  0  0  0  0  0
    0.3928   -1.5316    0.0561 N   0  0  0  0  0  0  0  0  0  0  0  0
    0.7622   -2.5708    0.0561 N   0  0  0  0  0  0  0  0  0  0  0  0
    0.4375    0.5616    1.3400 C   0  0  0  0  0  0  0  0  0  0  0  0
    1.5335    0.5596    1.3376 H   0  0  0  0  0  0  0  0  0  0  0  0
    0.0978    1.6058    1.3771 H   0  0  0  0  0  0  0  0  0  0  0  0
    0.0589    0.0514    2.2325 H   0  0  0  0  0  0  0  0  0  0  0  0
   -1.6590   -0.1804    0.0559 C   0  0  0  0  0  0  0  0  0  0  0  0
   -2.0719    0.8378    0.0558 H   0  0  0  0  0  0  0  0  0  0  0  0
   -2.0193   -0.6940   -0.8423 H   0  0  0  0  0  0  0  0  0  0  0  0
   -2.0195   -0.6939    0.9540 H   0  0  0  0  0  0  0  0  0  0  0  0
    0.4377    0.5615   -1.2278 C   0  0  0  0  0  0  0  0  0  0  0  0
    0.0981    1.6057   -1.2650 H   0  0  0  0  0  0  0  0  0  0  0  0
    1.5337    0.5596   -1.2252 H   0  0  0  0  0  0  0  0  0  0  0  0
    0.0593    0.0513   -2.1204 H   0  0  0  0  0  0  0  0  0  0  0  0
  1  2  1  0  0  0  0
  1  4  1  0  0  0  0
  3  2  1  0  0  0  0
  4  6  1  0  0  0  0
  4  7  1  0  0  0  0
  5  4  1  0  0  0  0
  8  1  1  0  0  0  0
  8 11  1  0  0  0  0
  9  8  1  0  0  0  0
 10  8  1  0  0  0  0
 12 14  1  0  0  0  0
 12  1  1  0  0  0  0
 13 12  1  0  0  0  0
 15 12  1  0  0  0  0
M  RAD  2   2   2   3   3
M  END
