Coordinates from ORCA-job tert-Butyl-N2+-scan-d09-169-n800
 OpenBabel09191813453D

 15 13  0  0  0  0  0  0  0  0999 V2000
   -0.1373    0.7302    0.2366 C   0  0  0  0  0  0  0  0  0  0  0  0
   -0.3092   -3.8893   -0.9185 N   0  0  0  0  0  0  0  0  0  0  0  0
   -0.2484   -4.9481   -1.2246 N   0  0  0  0  0  0  0  0  0  0  0  0
    0.1334    1.7124    1.2893 C   0  0  0  0  0  0  0  0  0  0  0  0
    0.9260    2.4252    1.0431 H   0  0  0  0  0  0  0  0  0  0  0  0
   -0.8177    2.2737    1.4224 H   0  0  0  0  0  0  0  0  0  0  0  0
    0.2950    1.2226    2.2614 H   0  0  0  0  0  0  0  0  0  0  0  0
   -1.0378   -0.3950    0.4922 C   0  0  0  0  0  0  0  0  0  0  0  0
   -1.9657   -0.1661   -0.0751 H   0  0  0  0  0  0  0  0  0  0  0  0
   -0.6689   -1.3196    0.0173 H   0  0  0  0  0  0  0  0  0  0  0  0
   -1.2904   -0.5423    1.5456 H   0  0  0  0  0  0  0  0  0  0  0  0
    0.4804    0.8801   -1.0810 C   0  0  0  0  0  0  0  0  0  0  0  0
    0.6009    1.9340   -1.3698 H   0  0  0  0  0  0  0  0  0  0  0  0
    1.5212    0.5109   -0.9335 H   0  0  0  0  0  0  0  0  0  0  0  0
    0.0180    0.2720   -1.8648 H   0  0  0  0  0  0  0  0  0  0  0  0
  1  8  1  0  0  0  0
  1  4  1  0  0  0  0
  3  2  3  0  0  0  0
  4  6  1  0  0  0  0
  4  7  1  0  0  0  0
  5  4  1  0  0  0  0
  8 11  1  0  0  0  0
  9  8  1  0  0  0  0
 10  8  1  0  0  0  0
 12 14  1  0  0  0  0
 12  1  1  0  0  0  0
 13 12  1  0  0  0  0
 15 12  1  0  0  0  0
M  RAD  1   1   2
M  END
