Coordinates from ORCA-job tert-Butyl-N2+-scan-d09-169-n800
 OpenBabel09191813453D

 15 13  0  0  0  0  0  0  0  0999 V2000
   -0.2046    0.1507    0.0561 C   0  0  0  0  0  0  0  0  0  0  0  0
    0.4716   -1.7542    0.0564 N   0  0  0  0  0  0  0  0  0  0  0  0
    0.8441   -2.7926    0.0548 N   0  0  0  0  0  0  0  0  0  0  0  0
    0.4223    0.5903    1.3325 C   0  0  0  0  0  0  0  0  0  0  0  0
    1.5169    0.5697    1.3034 H   0  0  0  0  0  0  0  0  0  0  0  0
    0.1192    1.6490    1.4370 H   0  0  0  0  0  0  0  0  0  0  0  0
    0.0337    0.0579    2.2064 H   0  0  0  0  0  0  0  0  0  0  0  0
   -1.6625   -0.1471    0.0560 C   0  0  0  0  0  0  0  0  0  0  0  0
   -2.1476    0.8469    0.0558 H   0  0  0  0  0  0  0  0  0  0  0  0
   -1.9938   -0.6675   -0.8485 H   0  0  0  0  0  0  0  0  0  0  0  0
   -1.9940   -0.6673    0.9605 H   0  0  0  0  0  0  0  0  0  0  0  0
    0.4227    0.5898   -1.2202 C   0  0  0  0  0  0  0  0  0  0  0  0
    0.1196    1.6485   -1.3251 H   0  0  0  0  0  0  0  0  0  0  0  0
    1.5173    0.5693   -1.1908 H   0  0  0  0  0  0  0  0  0  0  0  0
    0.0344    0.0572   -2.0940 H   0  0  0  0  0  0  0  0  0  0  0  0
  1  4  1  0  0  0  0
  3  2  3  0  0  0  0
  4  6  1  0  0  0  0
  4  7  1  0  0  0  0
  5  4  1  0  0  0  0
  8  1  1  0  0  0  0
  8 11  1  0  0  0  0
  9  8  1  0  0  0  0
 10  8  1  0  0  0  0
 12 14  1  0  0  0  0
 12  1  1  0  0  0  0
 13 12  1  0  0  0  0
 15 12  1  0  0  0  0
M  RAD  1   1   2
M  END
