Coordinates from ORCA-job tert-Butyl-N2+-scan-d09-169-n800
 OpenBabel09191813453D

 15 13  0  0  0  0  0  0  0  0999 V2000
   -0.2876    0.3863    0.0560 C   0  0  0  0  0  0  0  0  0  0  0  0
    0.6816   -2.3496    0.0561 N   0  0  0  0  0  0  0  0  0  0  0  0
    1.0554   -3.3881    0.0561 N   0  0  0  0  0  0  0  0  0  0  0  0
    0.3827    0.6877    1.3267 C   0  0  0  0  0  0  0  0  0  0  0  0
    1.4751    0.6270    1.2654 H   0  0  0  0  0  0  0  0  0  0  0  0
    0.1426    1.7564    1.5217 H   0  0  0  0  0  0  0  0  0  0  0  0
   -0.0204    0.1216    2.1727 H   0  0  0  0  0  0  0  0  0  0  0  0
   -1.6891   -0.0500    0.0559 C   0  0  0  0  0  0  0  0  0  0  0  0
   -2.2763    0.8949    0.0558 H   0  0  0  0  0  0  0  0  0  0  0  0
   -1.9729   -0.5892   -0.8543 H   0  0  0  0  0  0  0  0  0  0  0  0
   -1.9731   -0.5892    0.9660 H   0  0  0  0  0  0  0  0  0  0  0  0
    0.3829    0.6877   -1.2146 C   0  0  0  0  0  0  0  0  0  0  0  0
    0.1428    1.7564   -1.4096 H   0  0  0  0  0  0  0  0  0  0  0  0
    1.4753    0.6270   -1.1531 H   0  0  0  0  0  0  0  0  0  0  0  0
   -0.0200    0.1216   -2.0606 H   0  0  0  0  0  0  0  0  0  0  0  0
  1  4  1  0  0  0  0
  2  3  3  0  0  0  0
  4  6  1  0  0  0  0
  4  7  1  0  0  0  0
  5  4  1  0  0  0  0
  8  1  1  0  0  0  0
  8 11  1  0  0  0  0
  9  8  1  0  0  0  0
 10  8  1  0  0  0  0
 12 14  1  0  0  0  0
 12  1  1  0  0  0  0
 13 12  1  0  0  0  0
 15 12  1  0  0  0  0
M  RAD  1   1   2
M  END
