Coordinates from ORCA-job tert-Butyl-N2+-scan-d09-169-n800
 OpenBabel09191813453D

 15 13  0  0  0  0  0  0  0  0999 V2000
   -0.3068    0.4586    0.0560 C   0  0  0  0  0  0  0  0  0  0  0  0
    0.7927   -2.7196    0.0561 N   0  0  0  0  0  0  0  0  0  0  0  0
    1.1524   -3.7632    0.0562 N   0  0  0  0  0  0  0  0  0  0  0  0
    0.3654    0.7504    1.3267 C   0  0  0  0  0  0  0  0  0  0  0  0
    1.4585    0.7017    1.2608 H   0  0  0  0  0  0  0  0  0  0  0  0
    0.1159    1.8143    1.5385 H   0  0  0  0  0  0  0  0  0  0  0  0
   -0.0307    0.1705    2.1672 H   0  0  0  0  0  0  0  0  0  0  0  0
   -1.7006    0.0007    0.0559 C   0  0  0  0  0  0  0  0  0  0  0  0
   -2.3049    0.9353    0.0554 H   0  0  0  0  0  0  0  0  0  0  0  0
   -1.9761   -0.5428   -0.8547 H   0  0  0  0  0  0  0  0  0  0  0  0
   -1.9765   -0.5421    0.9668 H   0  0  0  0  0  0  0  0  0  0  0  0
    0.3656    0.7504   -1.2146 C   0  0  0  0  0  0  0  0  0  0  0  0
    0.1167    1.8145   -1.4260 H   0  0  0  0  0  0  0  0  0  0  0  0
    1.4586    0.7011   -1.1486 H   0  0  0  0  0  0  0  0  0  0  0  0
   -0.0308    0.1710   -2.0552 H   0  0  0  0  0  0  0  0  0  0  0  0
  1  4  1  0  0  0  0
  2  3  3  0  0  0  0
  4  6  1  0  0  0  0
  4  7  1  0  0  0  0
  5  4  1  0  0  0  0
  8  1  1  0  0  0  0
  8 11  1  0  0  0  0
  9  8  1  0  0  0  0
 10  8  1  0  0  0  0
 12 14  1  0  0  0  0
 12  1  1  0  0  0  0
 13 12  1  0  0  0  0
 15 12  1  0  0  0  0
M  RAD  1   1   2
M  END
