Coordinates from ORCA-job tert-Butyl-N2+-scan-d09-169-n800
 OpenBabel09191813453D

 15 13  0  0  0  0  0  0  0  0999 V2000
   -0.1829    0.6936    0.1378 C   0  0  0  0  0  0  0  0  0  0  0  0
   -0.1370   -3.6364   -0.4064 N   0  0  0  0  0  0  0  0  0  0  0  0
    0.0256   -4.7137   -0.5835 N   0  0  0  0  0  0  0  0  0  0  0  0
    0.3396    1.3343    1.3483 C   0  0  0  0  0  0  0  0  0  0  0  0
    1.2396    1.9350    1.1913 H   0  0  0  0  0  0  0  0  0  0  0  0
   -0.4750    1.9706    1.7504 H   0  0  0  0  0  0  0  0  0  0  0  0
    0.4916    0.5773    2.1372 H   0  0  0  0  0  0  0  0  0  0  0  0
   -1.2840   -0.2602    0.2364 C   0  0  0  0  0  0  0  0  0  0  0  0
   -1.9902   -0.1515   -0.6009 H   0  0  0  0  0  0  0  0  0  0  0  0
   -0.8136   -1.2558    0.0588 H   0  0  0  0  0  0  0  0  0  0  0  0
   -1.7828   -0.2798    1.2098 H   0  0  0  0  0  0  0  0  0  0  0  0
    0.3965    1.0112   -1.1691 C   0  0  0  0  0  0  0  0  0  0  0  0
    0.1712    2.0828   -1.3538 H   0  0  0  0  0  0  0  0  0  0  0  0
    1.4979    0.9807   -1.1212 H   0  0  0  0  0  0  0  0  0  0  0  0
    0.0028    0.4124   -1.9948 H   0  0  0  0  0  0  0  0  0  0  0  0
  1  8  1  0  0  0  0
  1  4  1  0  0  0  0
  3  2  3  0  0  0  0
  4  6  1  0  0  0  0
  4  7  1  0  0  0  0
  5  4  1  0  0  0  0
  8 11  1  0  0  0  0
  9  8  1  0  0  0  0
 10  8  1  0  0  0  0
 12 14  1  0  0  0  0
 12  1  1  0  0  0  0
 13 12  1  0  0  0  0
 15 12  1  0  0  0  0
M  RAD  1   1   2
M  END
