Coordinates from ORCA-job tert-Butyl-N2+-scan-d09-169-n800
 OpenBabel09191813453D

 15 13  0  0  0  0  0  0  0  0999 V2000
   -0.2368    0.2389    0.0561 C   0  0  0  0  0  0  0  0  0  0  0  0
    0.5279   -1.9109    0.0562 N   0  0  0  0  0  0  0  0  0  0  0  0
    0.9057   -2.9478    0.0557 N   0  0  0  0  0  0  0  0  0  0  0  0
    0.4111    0.6136    1.3291 C   0  0  0  0  0  0  0  0  0  0  0  0
    1.5049    0.5779    1.2862 H   0  0  0  0  0  0  0  0  0  0  0  0
    0.1325    1.6787    1.4688 H   0  0  0  0  0  0  0  0  0  0  0  0
    0.0156    0.0704    2.1929 H   0  0  0  0  0  0  0  0  0  0  0  0
   -1.6684   -0.1217    0.0559 C   0  0  0  0  0  0  0  0  0  0  0  0
   -2.1926    0.8563    0.0558 H   0  0  0  0  0  0  0  0  0  0  0  0
   -1.9829   -0.6472   -0.8515 H   0  0  0  0  0  0  0  0  0  0  0  0
   -1.9831   -0.6471    0.9634 H   0  0  0  0  0  0  0  0  0  0  0  0
    0.4114    0.6135   -1.2169 C   0  0  0  0  0  0  0  0  0  0  0  0
    0.1328    1.6785   -1.3567 H   0  0  0  0  0  0  0  0  0  0  0  0
    1.5052    0.5777   -1.1738 H   0  0  0  0  0  0  0  0  0  0  0  0
    0.0161    0.0701   -2.0807 H   0  0  0  0  0  0  0  0  0  0  0  0
  1  4  1  0  0  0  0
  3  2  3  0  0  0  0
  4  6  1  0  0  0  0
  4  7  1  0  0  0  0
  5  4  1  0  0  0  0
  8  1  1  0  0  0  0
  8 11  1  0  0  0  0
  9  8  1  0  0  0  0
 10  8  1  0  0  0  0
 12 14  1  0  0  0  0
 12  1  1  0  0  0  0
 13 12  1  0  0  0  0
 15 12  1  0  0  0  0
M  RAD  1   1   2
M  END
