Coordinates from ORCA-job tert-Butyl-N2+-scan-d09-169-n800
 OpenBabel09191813453D

 15 13  0  0  0  0  0  0  0  0999 V2000
   -0.1781    0.7072    0.1488 C   0  0  0  0  0  0  0  0  0  0  0  0
   -0.1769   -3.7149   -0.4649 N   0  0  0  0  0  0  0  0  0  0  0  0
   -0.0501   -4.7935   -0.6619 N   0  0  0  0  0  0  0  0  0  0  0  0
    0.3121    1.3963    1.3456 C   0  0  0  0  0  0  0  0  0  0  0  0
    1.1964    2.0182    1.1811 H   0  0  0  0  0  0  0  0  0  0  0  0
   -0.5262    2.0270    1.7080 H   0  0  0  0  0  0  0  0  0  0  0  0
    0.4674    0.6731    2.1642 H   0  0  0  0  0  0  0  0  0  0  0  0
   -1.2386   -0.2902    0.2653 C   0  0  0  0  0  0  0  0  0  0  0  0
   -1.9673   -0.1949   -0.5553 H   0  0  0  0  0  0  0  0  0  0  0  0
   -0.7458   -1.2694    0.0639 H   0  0  0  0  0  0  0  0  0  0  0  0
   -1.7162   -0.3321    1.2484 H   0  0  0  0  0  0  0  0  0  0  0  0
    0.3979    1.0180   -1.1618 C   0  0  0  0  0  0  0  0  0  0  0  0
    0.2440    2.1005   -1.3436 H   0  0  0  0  0  0  0  0  0  0  0  0
    1.4974    0.9206   -1.1093 H   0  0  0  0  0  0  0  0  0  0  0  0
   -0.0167    0.4349   -1.9880 H   0  0  0  0  0  0  0  0  0  0  0  0
  1  8  1  0  0  0  0
  1  4  1  0  0  0  0
  3  2  3  0  0  0  0
  4  6  1  0  0  0  0
  4  7  1  0  0  0  0
  5  4  1  0  0  0  0
  8 11  1  0  0  0  0
  9  8  1  0  0  0  0
 10  8  1  0  0  0  0
 12 14  1  0  0  0  0
 12  1  1  0  0  0  0
 13 12  1  0  0  0  0
 15 12  1  0  0  0  0
M  RAD  1   1   2
M  END
