Coordinates from ORCA-job tert-Butyl-N2+-scan-d09-169-n800
 OpenBabel09191813453D

 15 13  0  0  0  0  0  0  0  0999 V2000
   -0.2434    0.2577    0.0560 C   0  0  0  0  0  0  0  0  0  0  0  0
    0.5406   -1.9489    0.0562 N   0  0  0  0  0  0  0  0  0  0  0  0
    0.9187   -2.9857    0.0558 N   0  0  0  0  0  0  0  0  0  0  0  0
    0.4083    0.6204    1.3286 C   0  0  0  0  0  0  0  0  0  0  0  0
    1.5019    0.5805    1.2827 H   0  0  0  0  0  0  0  0  0  0  0  0
    0.1357    1.6864    1.4767 H   0  0  0  0  0  0  0  0  0  0  0  0
    0.0118    0.0733    2.1895 H   0  0  0  0  0  0  0  0  0  0  0  0
   -1.6701   -0.1151    0.0559 C   0  0  0  0  0  0  0  0  0  0  0  0
   -2.2041    0.8581    0.0558 H   0  0  0  0  0  0  0  0  0  0  0  0
   -1.9795   -0.6431   -0.8519 H   0  0  0  0  0  0  0  0  0  0  0  0
   -1.9797   -0.6430    0.9637 H   0  0  0  0  0  0  0  0  0  0  0  0
    0.4086    0.6203   -1.2164 C   0  0  0  0  0  0  0  0  0  0  0  0
    0.1360    1.6863   -1.3647 H   0  0  0  0  0  0  0  0  0  0  0  0
    1.5022    0.5804   -1.1702 H   0  0  0  0  0  0  0  0  0  0  0  0
    0.0122    0.0731   -2.0773 H   0  0  0  0  0  0  0  0  0  0  0  0
  1  4  1  0  0  0  0
  3  2  3  0  0  0  0
  4  6  1  0  0  0  0
  4  7  1  0  0  0  0
  5  4  1  0  0  0  0
  8  1  1  0  0  0  0
  8 11  1  0  0  0  0
  9  8  1  0  0  0  0
 10  8  1  0  0  0  0
 12 14  1  0  0  0  0
 12  1  1  0  0  0  0
 13 12  1  0  0  0  0
 15 12  1  0  0  0  0
M  RAD  1   1   2
M  END
