Coordinates from ORCA-job tert-Butyl-N2+-scan-d09-169-n800
 OpenBabel09191813453D

 15 13  0  0  0  0  0  0  0  0999 V2000
   -0.1034    0.8336    0.2758 C   0  0  0  0  0  0  0  0  0  0  0  0
   -0.4552   -4.5818   -1.1297 N   0  0  0  0  0  0  0  0  0  0  0  0
   -0.4628   -5.6354   -1.4596 N   0  0  0  0  0  0  0  0  0  0  0  0
    0.0728    1.8658    1.3002 C   0  0  0  0  0  0  0  0  0  0  0  0
    0.8584    2.5914    1.0656 H   0  0  0  0  0  0  0  0  0  0  0  0
   -0.8961    2.4150    1.3163 H   0  0  0  0  0  0  0  0  0  0  0  0
    0.1721    1.4403    2.3079 H   0  0  0  0  0  0  0  0  0  0  0  0
   -0.9156   -0.3535    0.5520 C   0  0  0  0  0  0  0  0  0  0  0  0
   -1.8881   -0.1564    0.0486 H   0  0  0  0  0  0  0  0  0  0  0  0
   -0.5270   -1.2442    0.0349 H   0  0  0  0  0  0  0  0  0  0  0  0
   -1.1079   -0.5345    1.6133 H   0  0  0  0  0  0  0  0  0  0  0  0
    0.5121    0.9982   -1.0408 C   0  0  0  0  0  0  0  0  0  0  0  0
    0.6134    2.0506   -1.3382 H   0  0  0  0  0  0  0  0  0  0  0  0
    1.5570    0.6414   -0.8847 H   0  0  0  0  0  0  0  0  0  0  0  0
    0.0698    0.3701   -1.8213 H   0  0  0  0  0  0  0  0  0  0  0  0
  1  8  1  0  0  0  0
  1  4  1  0  0  0  0
  3  2  3  0  0  0  0
  4  6  1  0  0  0  0
  4  7  1  0  0  0  0
  5  4  1  0  0  0  0
  8 11  1  0  0  0  0
  9  8  1  0  0  0  0
 10  8  1  0  0  0  0
 12 14  1  0  0  0  0
 12  1  1  0  0  0  0
 13 12  1  0  0  0  0
 15 12  1  0  0  0  0
M  RAD  1   1   2
M  END
