Coordinates from ORCA-job tert-Butyl-N2+-scan-d09-169-n800
 OpenBabel09191813453D

 15 14  0  0  0  0  0  0  0  0999 V2000
   -0.1729    0.0631    0.0561 C   0  0  0  0  0  0  0  0  0  0  0  0
    0.4288   -1.6345    0.0562 N   0  0  0  0  0  0  0  0  0  0  0  0
    0.7988   -2.6732    0.0556 N   0  0  0  0  0  0  0  0  0  0  0  0
    0.4307    0.5741    1.3364 C   0  0  0  0  0  0  0  0  0  0  0  0
    1.5261    0.5650    1.3210 H   0  0  0  0  0  0  0  0  0  0  0  0
    0.1071    1.6253    1.4079 H   0  0  0  0  0  0  0  0  0  0  0  0
    0.0488    0.0520    2.2198 H   0  0  0  0  0  0  0  0  0  0  0  0
   -1.6601   -0.1650    0.0559 C   0  0  0  0  0  0  0  0  0  0  0  0
   -2.1084    0.8419    0.0558 H   0  0  0  0  0  0  0  0  0  0  0  0
   -2.0069   -0.6818   -0.8452 H   0  0  0  0  0  0  0  0  0  0  0  0
   -2.0071   -0.6817    0.9570 H   0  0  0  0  0  0  0  0  0  0  0  0
    0.4310    0.5739   -1.2242 C   0  0  0  0  0  0  0  0  0  0  0  0
    0.1075    1.6251   -1.2960 H   0  0  0  0  0  0  0  0  0  0  0  0
    1.5265    0.5648   -1.2085 H   0  0  0  0  0  0  0  0  0  0  0  0
    0.0493    0.0516   -2.1076 H   0  0  0  0  0  0  0  0  0  0  0  0
  1  2  1  0  0  0  0
  1  4  1  0  0  0  0
  3  2  1  0  0  0  0
  4  6  1  0  0  0  0
  4  7  1  0  0  0  0
  5  4  1  0  0  0  0
  8  1  1  0  0  0  0
  8 11  1  0  0  0  0
  9  8  1  0  0  0  0
 10  8  1  0  0  0  0
 12 14  1  0  0  0  0
 12  1  1  0  0  0  0
 13 12  1  0  0  0  0
 15 12  1  0  0  0  0
M  RAD  2   2   2   3   3
M  END
