Coordinates from ORCA-job tert-Butyl-N2+-scan-d09-169-n800
 OpenBabel09191813453D

 15 13  0  0  0  0  0  0  0  0999 V2000
   -0.2655    0.3206    0.0560 C   0  0  0  0  0  0  0  0  0  0  0  0
    0.5985   -2.1126    0.0561 N   0  0  0  0  0  0  0  0  0  0  0  0
    0.9771   -3.1493    0.0561 N   0  0  0  0  0  0  0  0  0  0  0  0
    0.3972    0.6478    1.3272 C   0  0  0  0  0  0  0  0  0  0  0  0
    1.4901    0.5958    1.2726 H   0  0  0  0  0  0  0  0  0  0  0  0
    0.1432    1.7161    1.5005 H   0  0  0  0  0  0  0  0  0  0  0  0
   -0.0036    0.0915    2.1803 H   0  0  0  0  0  0  0  0  0  0  0  0
   -1.6778   -0.0879    0.0559 C   0  0  0  0  0  0  0  0  0  0  0  0
   -2.2406    0.8707    0.0558 H   0  0  0  0  0  0  0  0  0  0  0  0
   -1.9736   -0.6215   -0.8534 H   0  0  0  0  0  0  0  0  0  0  0  0
   -1.9738   -0.6214    0.9651 H   0  0  0  0  0  0  0  0  0  0  0  0
    0.3975    0.6477   -1.2150 C   0  0  0  0  0  0  0  0  0  0  0  0
    0.1435    1.7161   -1.3884 H   0  0  0  0  0  0  0  0  0  0  0  0
    1.4903    0.5958   -1.1603 H   0  0  0  0  0  0  0  0  0  0  0  0
   -0.0033    0.0914   -2.0682 H   0  0  0  0  0  0  0  0  0  0  0  0
  1  4  1  0  0  0  0
  3  2  3  0  0  0  0
  4  6  1  0  0  0  0
  4  7  1  0  0  0  0
  5  4  1  0  0  0  0
  8  1  1  0  0  0  0
  8 11  1  0  0  0  0
  9  8  1  0  0  0  0
 10  8  1  0  0  0  0
 12 14  1  0  0  0  0
 12  1  1  0  0  0  0
 13 12  1  0  0  0  0
 15 12  1  0  0  0  0
M  RAD  1   1   2
M  END
