Coordinates from ORCA-job tert-Butyl-N2+-scan-d09-169-n800
 OpenBabel09191813453D

 15 14  0  0  0  0  0  0  0  0999 V2000
   -0.0811   -0.1963    0.0560 C   0  0  0  0  0  0  0  0  0  0  0  0
    0.3208   -1.3274    0.0561 N   0  0  0  0  0  0  0  0  0  0  0  0
    0.6949   -2.3784    0.0562 N   0  0  0  0  0  0  0  0  0  0  0  0
    0.4506    0.5408    1.3500 C   0  0  0  0  0  0  0  0  0  0  0  0
    1.5464    0.5510    1.3554 H   0  0  0  0  0  0  0  0  0  0  0  0
    0.0687    1.5650    1.3082 H   0  0  0  0  0  0  0  0  0  0  0  0
    0.0731    0.0407    2.2484 H   0  0  0  0  0  0  0  0  0  0  0  0
   -1.6613   -0.2061    0.0559 C   0  0  0  0  0  0  0  0  0  0  0  0
   -1.9849    0.8388    0.0558 H   0  0  0  0  0  0  0  0  0  0  0  0
   -2.0338   -0.7123   -0.8413 H   0  0  0  0  0  0  0  0  0  0  0  0
   -2.0340   -0.7122    0.9530 H   0  0  0  0  0  0  0  0  0  0  0  0
    0.4508    0.5407   -1.2378 C   0  0  0  0  0  0  0  0  0  0  0  0
    0.0689    1.5649   -1.1962 H   0  0  0  0  0  0  0  0  0  0  0  0
    1.5466    0.5509   -1.2430 H   0  0  0  0  0  0  0  0  0  0  0  0
    0.0735    0.0406   -2.1363 H   0  0  0  0  0  0  0  0  0  0  0  0
  1  2  1  0  0  0  0
  1  4  1  0  0  0  0
  2  3  1  0  0  0  0
  4  5  1  0  0  0  0
  4  7  1  0  0  0  0
  6  4  1  0  0  0  0
  8  1  1  0  0  0  0
  8 11  1  0  0  0  0
  9  8  1  0  0  0  0
 10  8  1  0  0  0  0
 12 13  1  0  0  0  0
 12  1  1  0  0  0  0
 14 12  1  0  0  0  0
 15 12  1  0  0  0  0
M  RAD  2   2   2   3   3
M  END
