Coordinates from ORCA-job tert-Butyl-N2+-scan-d09-169-n800
 OpenBabel09191813453D

 15 13  0  0  0  0  0  0  0  0999 V2000
   -0.1168    0.7731    0.2479 C   0  0  0  0  0  0  0  0  0  0  0  0
   -0.4010   -4.1737   -0.9816 N   0  0  0  0  0  0  0  0  0  0  0  0
   -0.3836   -5.2336   -1.2900 N   0  0  0  0  0  0  0  0  0  0  0  0
    0.0970    1.7744    1.2957 C   0  0  0  0  0  0  0  0  0  0  0  0
    0.8719    2.5095    1.0577 H   0  0  0  0  0  0  0  0  0  0  0  0
   -0.8735    2.3111    1.3883 H   0  0  0  0  0  0  0  0  0  0  0  0
    0.2457    1.3069    2.2799 H   0  0  0  0  0  0  0  0  0  0  0  0
   -0.9644   -0.3934    0.5030 C   0  0  0  0  0  0  0  0  0  0  0  0
   -1.9169   -0.1804   -0.0303 H   0  0  0  0  0  0  0  0  0  0  0  0
   -0.5798   -1.2940   -0.0022 H   0  0  0  0  0  0  0  0  0  0  0  0
   -1.1865   -0.5694    1.5590 H   0  0  0  0  0  0  0  0  0  0  0  0
    0.5010    0.9461   -1.0666 C   0  0  0  0  0  0  0  0  0  0  0  0
    0.6021    2.0025   -1.3516 H   0  0  0  0  0  0  0  0  0  0  0  0
    1.5472    0.5927   -0.9145 H   0  0  0  0  0  0  0  0  0  0  0  0
    0.0568    0.3290   -1.8543 H   0  0  0  0  0  0  0  0  0  0  0  0
  1  8  1  0  0  0  0
  1  4  1  0  0  0  0
  3  2  3  0  0  0  0
  4  6  1  0  0  0  0
  4  7  1  0  0  0  0
  5  4  1  0  0  0  0
  8 11  1  0  0  0  0
  9  8  1  0  0  0  0
 10  8  1  0  0  0  0
 12 14  1  0  0  0  0
 12  1  1  0  0  0  0
 13 12  1  0  0  0  0
 15 12  1  0  0  0  0
M  RAD  1   1   2
M  END
