Coordinates from ORCA-job tert-Butyl-N2+-scan-d09-169-n800
 OpenBabel09191813453D

 15 13  0  0  0  0  0  0  0  0999 V2000
   -0.2930    0.4035    0.0560 C   0  0  0  0  0  0  0  0  0  0  0  0
    0.7084   -2.4272    0.0561 N   0  0  0  0  0  0  0  0  0  0  0  0
    1.0799   -3.4665    0.0561 N   0  0  0  0  0  0  0  0  0  0  0  0
    0.3785    0.7003    1.3266 C   0  0  0  0  0  0  0  0  0  0  0  0
    1.4709    0.6400    1.2640 H   0  0  0  0  0  0  0  0  0  0  0  0
    0.1390    1.7684    1.5266 H   0  0  0  0  0  0  0  0  0  0  0  0
   -0.0241    0.1312    2.1710 H   0  0  0  0  0  0  0  0  0  0  0  0
   -1.6926   -0.0378    0.0559 C   0  0  0  0  0  0  0  0  0  0  0  0
   -2.2841    0.9046    0.0558 H   0  0  0  0  0  0  0  0  0  0  0  0
   -1.9744   -0.5779   -0.8545 H   0  0  0  0  0  0  0  0  0  0  0  0
   -1.9746   -0.5778    0.9662 H   0  0  0  0  0  0  0  0  0  0  0  0
    0.3787    0.7003   -1.2145 C   0  0  0  0  0  0  0  0  0  0  0  0
    0.1393    1.7684   -1.4145 H   0  0  0  0  0  0  0  0  0  0  0  0
    1.4712    0.6399   -1.1516 H   0  0  0  0  0  0  0  0  0  0  0  0
   -0.0237    0.1312   -2.0589 H   0  0  0  0  0  0  0  0  0  0  0  0
  1  4  1  0  0  0  0
  2  3  3  0  0  0  0
  4  6  1  0  0  0  0
  4  7  1  0  0  0  0
  5  4  1  0  0  0  0
  8  1  1  0  0  0  0
  8 11  1  0  0  0  0
  9  8  1  0  0  0  0
 10  8  1  0  0  0  0
 12 14  1  0  0  0  0
 12  1  1  0  0  0  0
 13 12  1  0  0  0  0
 15 12  1  0  0  0  0
M  RAD  1   1   2
M  END
