Coordinates from ORCA-job tert-Butyl-N2+-scan-d09-169-n800
 OpenBabel09191813453D

 15 13  0  0  0  0  0  0  0  0999 V2000
   -0.1062    0.8124    0.2631 C   0  0  0  0  0  0  0  0  0  0  0  0
   -0.4463   -4.4379   -1.0620 N   0  0  0  0  0  0  0  0  0  0  0  0
   -0.4493   -5.4956   -1.3784 N   0  0  0  0  0  0  0  0  0  0  0  0
    0.0794    1.8289    1.3014 C   0  0  0  0  0  0  0  0  0  0  0  0
    0.8587    2.5619    1.0696 H   0  0  0  0  0  0  0  0  0  0  0  0
   -0.8924    2.3706    1.3466 H   0  0  0  0  0  0  0  0  0  0  0  0
    0.1970    1.3840    2.2992 H   0  0  0  0  0  0  0  0  0  0  0  0
   -0.9259   -0.3727    0.5256 C   0  0  0  0  0  0  0  0  0  0  0  0
   -1.8923   -0.1718    0.0122 H   0  0  0  0  0  0  0  0  0  0  0  0
   -0.5343   -1.2623    0.0079 H   0  0  0  0  0  0  0  0  0  0  0  0
   -1.1281   -0.5584    1.5840 H   0  0  0  0  0  0  0  0  0  0  0  0
    0.5090    0.9899   -1.0520 C   0  0  0  0  0  0  0  0  0  0  0  0
    0.6058    2.0458   -1.3389 H   0  0  0  0  0  0  0  0  0  0  0  0
    1.5559    0.6377   -0.8996 H   0  0  0  0  0  0  0  0  0  0  0  0
    0.0684    0.3684   -1.8385 H   0  0  0  0  0  0  0  0  0  0  0  0
  1  8  1  0  0  0  0
  1  4  1  0  0  0  0
  3  2  3  0  0  0  0
  4  6  1  0  0  0  0
  4  7  1  0  0  0  0
  5  4  1  0  0  0  0
  8 11  1  0  0  0  0
  9  8  1  0  0  0  0
 10  8  1  0  0  0  0
 12 14  1  0  0  0  0
 12  1  1  0  0  0  0
 13 12  1  0  0  0  0
 15 12  1  0  0  0  0
M  RAD  1   1   2
M  END
