Coordinates from ORCA-job tert-Butyl-N2+-scan-d09-169-n800
 OpenBabel09191813453D

 15 14  0  0  0  0  0  0  0  0999 V2000
   -0.1818    0.0879    0.0561 C   0  0  0  0  0  0  0  0  0  0  0  0
    0.4401   -1.6663    0.0563 N   0  0  0  0  0  0  0  0  0  0  0  0
    0.8107   -2.7049    0.0554 N   0  0  0  0  0  0  0  0  0  0  0  0
    0.4285    0.5782    1.3353 C   0  0  0  0  0  0  0  0  0  0  0  0
    1.5238    0.5664    1.3160 H   0  0  0  0  0  0  0  0  0  0  0  0
    0.1102    1.6315    1.4162 H   0  0  0  0  0  0  0  0  0  0  0  0
    0.0450    0.0530    2.2160 H   0  0  0  0  0  0  0  0  0  0  0  0
   -1.6605   -0.1603    0.0559 C   0  0  0  0  0  0  0  0  0  0  0  0
   -2.1190    0.8433    0.0558 H   0  0  0  0  0  0  0  0  0  0  0  0
   -2.0032   -0.6779   -0.8461 H   0  0  0  0  0  0  0  0  0  0  0  0
   -2.0034   -0.6778    0.9580 H   0  0  0  0  0  0  0  0  0  0  0  0
    0.4289    0.5779   -1.2230 C   0  0  0  0  0  0  0  0  0  0  0  0
    0.1105    1.6312   -1.3042 H   0  0  0  0  0  0  0  0  0  0  0  0
    1.5241    0.5661   -1.2035 H   0  0  0  0  0  0  0  0  0  0  0  0
    0.0455    0.0526   -2.1038 H   0  0  0  0  0  0  0  0  0  0  0  0
  1  2  1  0  0  0  0
  1  4  1  0  0  0  0
  3  2  1  0  0  0  0
  4  6  1  0  0  0  0
  4  7  1  0  0  0  0
  5  4  1  0  0  0  0
  8  1  1  0  0  0  0
  8 11  1  0  0  0  0
  9  8  1  0  0  0  0
 10  8  1  0  0  0  0
 12 14  1  0  0  0  0
 12  1  1  0  0  0  0
 13 12  1  0  0  0  0
 15 12  1  0  0  0  0
M  RAD  2   2   2   3   3
M  END
