Coordinates from ORCA-job tert-Butyl-N2+-scan-d09-169-n800
 OpenBabel09191813453D

 15 13  0  0  0  0  0  0  0  0999 V2000
   -0.3168    0.6226    0.0632 C   0  0  0  0  0  0  0  0  0  0  0  0
    0.5836   -3.0317    0.0525 N   0  0  0  0  0  0  0  0  0  0  0  0
    0.8952   -4.0863   -0.0436 N   0  0  0  0  0  0  0  0  0  0  0  0
    0.3963    0.7499    1.3361 C   0  0  0  0  0  0  0  0  0  0  0  0
    1.1145    1.5838    1.3179 H   0  0  0  0  0  0  0  0  0  0  0  0
   -0.2511    0.7795    2.2168 H   0  0  0  0  0  0  0  0  0  0  0  0
    1.0356   -0.1586    1.3922 H   0  0  0  0  0  0  0  0  0  0  0  0
   -1.7216    0.2133    0.0454 C   0  0  0  0  0  0  0  0  0  0  0  0
   -2.2026    0.2963   -0.9341 H   0  0  0  0  0  0  0  0  0  0  0  0
   -1.7010   -0.8626    0.3296 H   0  0  0  0  0  0  0  0  0  0  0  0
   -2.2994    0.7004    0.8439 H   0  0  0  0  0  0  0  0  0  0  0  0
    0.3895    0.8746   -1.1922 C   0  0  0  0  0  0  0  0  0  0  0  0
    0.0611    1.9000   -1.4784 H   0  0  0  0  0  0  0  0  0  0  0  0
    1.4806    0.8889   -1.0999 H   0  0  0  0  0  0  0  0  0  0  0  0
    0.0354    0.2307   -2.0092 H   0  0  0  0  0  0  0  0  0  0  0  0
  1  4  1  0  0  0  0
  3  2  3  0  0  0  0
  4  7  1  0  0  0  0
  4  6  1  0  0  0  0
  5  4  1  0  0  0  0
  8  1  1  0  0  0  0
  8 10  1  0  0  0  0
  8 11  1  0  0  0  0
  9  8  1  0  0  0  0
 12 14  1  0  0  0  0
 12  1  1  0  0  0  0
 13 12  1  0  0  0  0
 15 12  1  0  0  0  0
M  RAD  1   1   2
M  END
