Coordinates from ORCA-job tert-Butyl-N2+-scan-d09-169-n800
 OpenBabel09191813453D

 15 13  0  0  0  0  0  0  0  0999 V2000
   -0.1934    0.6797    0.1253 C   0  0  0  0  0  0  0  0  0  0  0  0
   -0.0825   -3.5567   -0.3475 N   0  0  0  0  0  0  0  0  0  0  0  0
    0.1243   -4.6308   -0.4950 N   0  0  0  0  0  0  0  0  0  0  0  0
    0.3638    1.2653    1.3486 C   0  0  0  0  0  0  0  0  0  0  0  0
    1.2960    1.8178    1.2030 H   0  0  0  0  0  0  0  0  0  0  0  0
   -0.4142    1.9429    1.7566 H   0  0  0  0  0  0  0  0  0  0  0  0
    0.4702    0.4901    2.1266 H   0  0  0  0  0  0  0  0  0  0  0  0
   -1.3269   -0.2357    0.2094 C   0  0  0  0  0  0  0  0  0  0  0  0
   -2.0183   -0.1139   -0.6373 H   0  0  0  0  0  0  0  0  0  0  0  0
   -0.8759   -1.2439    0.0488 H   0  0  0  0  0  0  0  0  0  0  0  0
   -1.8364   -0.2409    1.1778 H   0  0  0  0  0  0  0  0  0  0  0  0
    0.3818    1.0159   -1.1788 C   0  0  0  0  0  0  0  0  0  0  0  0
    0.1552    2.0918   -1.3394 H   0  0  0  0  0  0  0  0  0  0  0  0
    1.4827    0.9800   -1.1447 H   0  0  0  0  0  0  0  0  0  0  0  0
   -0.0272    0.4391   -2.0128 H   0  0  0  0  0  0  0  0  0  0  0  0
  1  8  1  0  0  0  0
  1  4  1  0  0  0  0
  3  2  3  0  0  0  0
  4  6  1  0  0  0  0
  4  7  1  0  0  0  0
  5  4  1  0  0  0  0
  8 11  1  0  0  0  0
  9  8  1  0  0  0  0
 10  8  1  0  0  0  0
 12 14  1  0  0  0  0
 12  1  1  0  0  0  0
 13 12  1  0  0  0  0
 15 12  1  0  0  0  0
M  RAD  1   1   2
M  END
