Coordinates from ORCA-job tert-Butyl-N2+-scan-d09-169-n800
 OpenBabel09191813453D

 15 13  0  0  0  0  0  0  0  0999 V2000
   -0.1091    0.8002    0.2580 C   0  0  0  0  0  0  0  0  0  0  0  0
   -0.4341   -4.3558   -1.0348 N   0  0  0  0  0  0  0  0  0  0  0  0
   -0.4317   -5.4144   -1.3479 N   0  0  0  0  0  0  0  0  0  0  0  0
    0.0844    1.8115    1.3000 C   0  0  0  0  0  0  0  0  0  0  0  0
    0.8616    2.5460    1.0667 H   0  0  0  0  0  0  0  0  0  0  0  0
   -0.8877    2.3507    1.3603 H   0  0  0  0  0  0  0  0  0  0  0  0
    0.2121    1.3590    2.2934 H   0  0  0  0  0  0  0  0  0  0  0  0
   -0.9366   -0.3801    0.5173 C   0  0  0  0  0  0  0  0  0  0  0  0
   -1.8988   -0.1758   -0.0021 H   0  0  0  0  0  0  0  0  0  0  0  0
   -0.5463   -1.2724    0.0027 H   0  0  0  0  0  0  0  0  0  0  0  0
   -1.1447   -0.5640    1.5748 H   0  0  0  0  0  0  0  0  0  0  0  0
    0.5068    0.9778   -1.0568 C   0  0  0  0  0  0  0  0  0  0  0  0
    0.6042    2.0342   -1.3423 H   0  0  0  0  0  0  0  0  0  0  0  0
    1.5537    0.6259   -0.9046 H   0  0  0  0  0  0  0  0  0  0  0  0
    0.0656    0.3579   -1.8442 H   0  0  0  0  0  0  0  0  0  0  0  0
  1  8  1  0  0  0  0
  1  4  1  0  0  0  0
  3  2  3  0  0  0  0
  4  6  1  0  0  0  0
  4  7  1  0  0  0  0
  5  4  1  0  0  0  0
  8 11  1  0  0  0  0
  9  8  1  0  0  0  0
 10  8  1  0  0  0  0
 12 14  1  0  0  0  0
 12  1  1  0  0  0  0
 13 12  1  0  0  0  0
 15 12  1  0  0  0  0
M  RAD  1   1   2
M  END
