Coordinates from ORCA-job tert-Butyl-N2+-scan-d09-169-n800
 OpenBabel09191813453D

 15 13  0  0  0  0  0  0  0  0999 V2000
   -0.2225    0.2000    0.0561 C   0  0  0  0  0  0  0  0  0  0  0  0
    0.5006   -1.8371    0.0562 N   0  0  0  0  0  0  0  0  0  0  0  0
    0.8763   -2.8746    0.0553 N   0  0  0  0  0  0  0  0  0  0  0  0
    0.4166    0.6021    1.3305 C   0  0  0  0  0  0  0  0  0  0  0  0
    1.5108    0.5743    1.2940 H   0  0  0  0  0  0  0  0  0  0  0  0
    0.1263    1.6646    1.4539 H   0  0  0  0  0  0  0  0  0  0  0  0
    0.0241    0.0642    2.1991 H   0  0  0  0  0  0  0  0  0  0  0  0
   -1.6652   -0.1343    0.0560 C   0  0  0  0  0  0  0  0  0  0  0  0
   -2.1716    0.8515    0.0558 H   0  0  0  0  0  0  0  0  0  0  0  0
   -1.9876   -0.6570   -0.8503 H   0  0  0  0  0  0  0  0  0  0  0  0
   -1.9878   -0.6568    0.9622 H   0  0  0  0  0  0  0  0  0  0  0  0
    0.4169    0.6018   -1.2182 C   0  0  0  0  0  0  0  0  0  0  0  0
    0.1267    1.6642   -1.3419 H   0  0  0  0  0  0  0  0  0  0  0  0
    1.5111    0.5740   -1.1814 H   0  0  0  0  0  0  0  0  0  0  0  0
    0.0246    0.0637   -2.0868 H   0  0  0  0  0  0  0  0  0  0  0  0
  1  4  1  0  0  0  0
  3  2  3  0  0  0  0
  4  6  1  0  0  0  0
  4  7  1  0  0  0  0
  5  4  1  0  0  0  0
  8  1  1  0  0  0  0
  8 11  1  0  0  0  0
  9  8  1  0  0  0  0
 10  8  1  0  0  0  0
 12 14  1  0  0  0  0
 12  1  1  0  0  0  0
 13 12  1  0  0  0  0
 15 12  1  0  0  0  0
M  RAD  1   1   2
M  END
