Coordinates from ORCA-job tert-Butyl-N2+-scan-d09-169-n800
 OpenBabel09191813453D

 15 13  0  0  0  0  0  0  0  0999 V2000
   -0.2952    0.4104    0.0560 C   0  0  0  0  0  0  0  0  0  0  0  0
    0.7189   -2.4583    0.0561 N   0  0  0  0  0  0  0  0  0  0  0  0
    1.0896   -3.4979    0.0561 N   0  0  0  0  0  0  0  0  0  0  0  0
    0.3768    0.7055    1.3267 C   0  0  0  0  0  0  0  0  0  0  0  0
    1.4693    0.6451    1.2634 H   0  0  0  0  0  0  0  0  0  0  0  0
    0.1376    1.7733    1.5288 H   0  0  0  0  0  0  0  0  0  0  0  0
   -0.0254    0.1350    2.1703 H   0  0  0  0  0  0  0  0  0  0  0  0
   -1.6941   -0.0328    0.0559 C   0  0  0  0  0  0  0  0  0  0  0  0
   -2.2875    0.9085    0.0558 H   0  0  0  0  0  0  0  0  0  0  0  0
   -1.9750   -0.5735   -0.8545 H   0  0  0  0  0  0  0  0  0  0  0  0
   -1.9752   -0.5734    0.9662 H   0  0  0  0  0  0  0  0  0  0  0  0
    0.3771    0.7055   -1.2145 C   0  0  0  0  0  0  0  0  0  0  0  0
    0.1379    1.7733   -1.4167 H   0  0  0  0  0  0  0  0  0  0  0  0
    1.4695    0.6450   -1.1511 H   0  0  0  0  0  0  0  0  0  0  0  0
   -0.0250    0.1350   -2.0582 H   0  0  0  0  0  0  0  0  0  0  0  0
  1  4  1  0  0  0  0
  2  3  3  0  0  0  0
  4  6  1  0  0  0  0
  4  7  1  0  0  0  0
  5  4  1  0  0  0  0
  8  1  1  0  0  0  0
  8 11  1  0  0  0  0
  9  8  1  0  0  0  0
 10  8  1  0  0  0  0
 12 14  1  0  0  0  0
 12  1  1  0  0  0  0
 13 12  1  0  0  0  0
 15 12  1  0  0  0  0
M  RAD  1   1   2
M  END
