Coordinates from ORCA-job tert-Butyl-N2+-scan-d09-169-n800
 OpenBabel09191813453D

 15 14  0  0  0  0  0  0  0  0999 V2000
   -0.0660   -0.2389    0.0560 C   0  0  0  0  0  0  0  0  0  0  0  0
    0.3025   -1.2756    0.0561 N   0  0  0  0  0  0  0  0  0  0  0  0
    0.6790   -2.3339    0.0562 N   0  0  0  0  0  0  0  0  0  0  0  0
    0.4537    0.5384    1.3542 C   0  0  0  0  0  0  0  0  0  0  0  0
    1.5492    0.5474    1.3545 H   0  0  0  0  0  0  0  0  0  0  0  0
    0.0604    1.5563    1.2940 H   0  0  0  0  0  0  0  0  0  0  0  0
    0.0751    0.0335    2.2492 H   0  0  0  0  0  0  0  0  0  0  0  0
   -1.6645   -0.2099    0.0559 C   0  0  0  0  0  0  0  0  0  0  0  0
   -1.9649    0.8408    0.0558 H   0  0  0  0  0  0  0  0  0  0  0  0
   -2.0324   -0.7165   -0.8426 H   0  0  0  0  0  0  0  0  0  0  0  0
   -2.0326   -0.7165    0.9543 H   0  0  0  0  0  0  0  0  0  0  0  0
    0.4540    0.5384   -1.2421 C   0  0  0  0  0  0  0  0  0  0  0  0
    0.0607    1.5563   -1.1820 H   0  0  0  0  0  0  0  0  0  0  0  0
    1.5494    0.5474   -1.2421 H   0  0  0  0  0  0  0  0  0  0  0  0
    0.0756    0.0335   -2.1371 H   0  0  0  0  0  0  0  0  0  0  0  0
  1  2  1  0  0  0  0
  1  4  1  0  0  0  0
  2  3  1  0  0  0  0
  4  5  1  0  0  0  0
  4  7  1  0  0  0  0
  6  4  1  0  0  0  0
  8  1  1  0  0  0  0
  8 11  1  0  0  0  0
  9  8  1  0  0  0  0
 10  8  1  0  0  0  0
 12 13  1  0  0  0  0
 12  1  1  0  0  0  0
 14 12  1  0  0  0  0
 15 12  1  0  0  0  0
M  RAD  2   2   2   3   3
M  END
