Coordinates from ORCA-job tert-Butyl-N2+-scan-d09-169-n800
 OpenBabel09191813453D

 15 14  0  0  0  0  0  0  0  0999 V2000
   -0.0721   -0.2217    0.0560 C   0  0  0  0  0  0  0  0  0  0  0  0
    0.3098   -1.2961    0.0561 N   0  0  0  0  0  0  0  0  0  0  0  0
    0.6853   -2.3512    0.0562 N   0  0  0  0  0  0  0  0  0  0  0  0
    0.4525    0.5391    1.3524 C   0  0  0  0  0  0  0  0  0  0  0  0
    1.5481    0.5489    1.3551 H   0  0  0  0  0  0  0  0  0  0  0  0
    0.0637    1.5596    1.2995 H   0  0  0  0  0  0  0  0  0  0  0  0
    0.0744    0.0365    2.2490 H   0  0  0  0  0  0  0  0  0  0  0  0
   -1.6630   -0.2085    0.0559 C   0  0  0  0  0  0  0  0  0  0  0  0
   -1.9726    0.8399    0.0558 H   0  0  0  0  0  0  0  0  0  0  0  0
   -2.0332   -0.7148   -0.8420 H   0  0  0  0  0  0  0  0  0  0  0  0
   -2.0334   -0.7148    0.9537 H   0  0  0  0  0  0  0  0  0  0  0  0
    0.4527    0.5391   -1.2402 C   0  0  0  0  0  0  0  0  0  0  0  0
    0.0640    1.5595   -1.1875 H   0  0  0  0  0  0  0  0  0  0  0  0
    1.5483    0.5489   -1.2427 H   0  0  0  0  0  0  0  0  0  0  0  0
    0.0748    0.0364   -2.1369 H   0  0  0  0  0  0  0  0  0  0  0  0
  1  2  1  0  0  0  0
  1  4  1  0  0  0  0
  2  3  1  0  0  0  0
  4  5  1  0  0  0  0
  4  7  1  0  0  0  0
  6  4  1  0  0  0  0
  8  1  1  0  0  0  0
  8 11  1  0  0  0  0
  9  8  1  0  0  0  0
 10  8  1  0  0  0  0
 12 13  1  0  0  0  0
 12  1  1  0  0  0  0
 14 12  1  0  0  0  0
 15 12  1  0  0  0  0
M  RAD  2   2   2   3   3
M  END
