Coordinates from ORCA-job tert-Butyl-N2+-scan-d09-169-n800
 OpenBabel09191813453D

 15 13  0  0  0  0  0  0  0  0999 V2000
   -0.2815    0.3677    0.0560 C   0  0  0  0  0  0  0  0  0  0  0  0
    0.6552   -2.2735    0.0561 N   0  0  0  0  0  0  0  0  0  0  0  0
    1.0308   -3.3113    0.0561 N   0  0  0  0  0  0  0  0  0  0  0  0
    0.3871    0.6751    1.3268 C   0  0  0  0  0  0  0  0  0  0  0  0
    1.4796    0.6156    1.2672 H   0  0  0  0  0  0  0  0  0  0  0  0
    0.1445    1.7441    1.5161 H   0  0  0  0  0  0  0  0  0  0  0  0
   -0.0159    0.1120    2.1746 H   0  0  0  0  0  0  0  0  0  0  0  0
   -1.6855   -0.0621    0.0559 C   0  0  0  0  0  0  0  0  0  0  0  0
   -2.2668    0.8862    0.0558 H   0  0  0  0  0  0  0  0  0  0  0  0
   -1.9722   -0.5999   -0.8541 H   0  0  0  0  0  0  0  0  0  0  0  0
   -1.9723   -0.5999    0.9658 H   0  0  0  0  0  0  0  0  0  0  0  0
    0.3873    0.6751   -1.2146 C   0  0  0  0  0  0  0  0  0  0  0  0
    0.1448    1.7440   -1.4040 H   0  0  0  0  0  0  0  0  0  0  0  0
    1.4798    0.6156   -1.1549 H   0  0  0  0  0  0  0  0  0  0  0  0
   -0.0156    0.1120   -2.0626 H   0  0  0  0  0  0  0  0  0  0  0  0
  1  4  1  0  0  0  0
  2  3  3  0  0  0  0
  4  6  1  0  0  0  0
  4  7  1  0  0  0  0
  5  4  1  0  0  0  0
  8  1  1  0  0  0  0
  8 11  1  0  0  0  0
  9  8  1  0  0  0  0
 10  8  1  0  0  0  0
 12 14  1  0  0  0  0
 12  1  1  0  0  0  0
 13 12  1  0  0  0  0
 15 12  1  0  0  0  0
M  RAD  1   1   2
M  END
