Coordinates from ORCA-job tert-Butyl-N2+-scan-d09-169-n800
 OpenBabel09191813453D

 15 13  0  0  0  0  0  0  0  0999 V2000
   -0.1357    0.7327    0.2373 C   0  0  0  0  0  0  0  0  0  0  0  0
   -0.3160   -3.9060   -0.9224 N   0  0  0  0  0  0  0  0  0  0  0  0
   -0.2595   -4.9650   -1.2286 N   0  0  0  0  0  0  0  0  0  0  0  0
    0.1303    1.7167    1.2894 C   0  0  0  0  0  0  0  0  0  0  0  0
    0.9207    2.4321    1.0435 H   0  0  0  0  0  0  0  0  0  0  0  0
   -0.8229    2.2751    1.4206 H   0  0  0  0  0  0  0  0  0  0  0  0
    0.2923    1.2286    2.2622 H   0  0  0  0  0  0  0  0  0  0  0  0
   -1.0321   -0.3958    0.4928 C   0  0  0  0  0  0  0  0  0  0  0  0
   -1.9620   -0.1677   -0.0717 H   0  0  0  0  0  0  0  0  0  0  0  0
   -0.6623   -1.3186    0.0153 H   0  0  0  0  0  0  0  0  0  0  0  0
   -1.2823   -0.5454    1.5465 H   0  0  0  0  0  0  0  0  0  0  0  0
    0.4823    0.8842   -1.0800 C   0  0  0  0  0  0  0  0  0  0  0  0
    0.6011    1.9382   -1.3688 H   0  0  0  0  0  0  0  0  0  0  0  0
    1.5236    0.5166   -0.9317 H   0  0  0  0  0  0  0  0  0  0  0  0
    0.0217    0.2750   -1.8641 H   0  0  0  0  0  0  0  0  0  0  0  0
  1  8  1  0  0  0  0
  1  4  1  0  0  0  0
  3  2  3  0  0  0  0
  4  6  1  0  0  0  0
  4  7  1  0  0  0  0
  5  4  1  0  0  0  0
  8 11  1  0  0  0  0
  9  8  1  0  0  0  0
 10  8  1  0  0  0  0
 12 14  1  0  0  0  0
 12  1  1  0  0  0  0
 13 12  1  0  0  0  0
 15 12  1  0  0  0  0
M  RAD  1   1   2
M  END
