Coordinates from ORCA-job tert-Butyl-N2+-scan-d09-169-n800
 OpenBabel09191813453D

 15 14  0  0  0  0  0  0  0  0999 V2000
   -0.0432   -0.3037    0.0560 C   0  0  0  0  0  0  0  0  0  0  0  0
    0.2785   -1.2083    0.0561 N   0  0  0  0  0  0  0  0  0  0  0  0
    0.6602   -2.2817    0.0562 N   0  0  0  0  0  0  0  0  0  0  0  0
    0.4582    0.5400    1.3630 C   0  0  0  0  0  0  0  0  0  0  0  0
    1.5531    0.5417    1.3501 H   0  0  0  0  0  0  0  0  0  0  0  0
    0.0495    1.5483    1.2771 H   0  0  0  0  0  0  0  0  0  0  0  0
    0.0759    0.0229    2.2487 H   0  0  0  0  0  0  0  0  0  0  0  0
   -1.6735   -0.2123    0.0559 C   0  0  0  0  0  0  0  0  0  0  0  0
   -1.9415    0.8457    0.0558 H   0  0  0  0  0  0  0  0  0  0  0  0
   -2.0278   -0.7223   -0.8455 H   0  0  0  0  0  0  0  0  0  0  0  0
   -2.0279   -0.7222    0.9573 H   0  0  0  0  0  0  0  0  0  0  0  0
    0.4585    0.5399   -1.2508 C   0  0  0  0  0  0  0  0  0  0  0  0
    0.0497    1.5483   -1.1651 H   0  0  0  0  0  0  0  0  0  0  0  0
    1.5533    0.5417   -1.2377 H   0  0  0  0  0  0  0  0  0  0  0  0
    0.0764    0.0227   -2.1366 H   0  0  0  0  0  0  0  0  0  0  0  0
  1  2  1  0  0  0  0
  1  4  1  0  0  0  0
  2  3  1  0  0  0  0
  4  7  1  0  0  0  0
  5  4  1  0  0  0  0
  6  4  1  0  0  0  0
  8  1  1  0  0  0  0
  8 11  1  0  0  0  0
  9  8  1  0  0  0  0
 10  8  1  0  0  0  0
 12 14  1  0  0  0  0
 12 13  1  0  0  0  0
 12  1  1  0  0  0  0
 15 12  1  0  0  0  0
M  RAD  2   2   2   3   3
M  END
