Coordinates from ORCA-job tert-Butyl-N2+-scan-d09-169-n800
 OpenBabel09191813453D

 15 13  0  0  0  0  0  0  0  0999 V2000
   -0.2887    0.3897    0.0560 C   0  0  0  0  0  0  0  0  0  0  0  0
    0.6870   -2.3651    0.0561 N   0  0  0  0  0  0  0  0  0  0  0  0
    1.0603   -3.4038    0.0561 N   0  0  0  0  0  0  0  0  0  0  0  0
    0.3819    0.6902    1.3267 C   0  0  0  0  0  0  0  0  0  0  0  0
    1.4743    0.6297    1.2651 H   0  0  0  0  0  0  0  0  0  0  0  0
    0.1418    1.7588    1.5225 H   0  0  0  0  0  0  0  0  0  0  0  0
   -0.0212    0.1236    2.1724 H   0  0  0  0  0  0  0  0  0  0  0  0
   -1.6897   -0.0476    0.0559 C   0  0  0  0  0  0  0  0  0  0  0  0
   -2.2777    0.8969    0.0558 H   0  0  0  0  0  0  0  0  0  0  0  0
   -1.9732   -0.5869   -0.8543 H   0  0  0  0  0  0  0  0  0  0  0  0
   -1.9734   -0.5869    0.9661 H   0  0  0  0  0  0  0  0  0  0  0  0
    0.3821    0.6901   -1.2145 C   0  0  0  0  0  0  0  0  0  0  0  0
    0.1421    1.7588   -1.4104 H   0  0  0  0  0  0  0  0  0  0  0  0
    1.4745    0.6296   -1.1528 H   0  0  0  0  0  0  0  0  0  0  0  0
   -0.0208    0.1236   -2.0603 H   0  0  0  0  0  0  0  0  0  0  0  0
  1  4  1  0  0  0  0
  2  3  3  0  0  0  0
  4  6  1  0  0  0  0
  4  7  1  0  0  0  0
  5  4  1  0  0  0  0
  8  1  1  0  0  0  0
  8 11  1  0  0  0  0
  9  8  1  0  0  0  0
 10  8  1  0  0  0  0
 12 14  1  0  0  0  0
 12  1  1  0  0  0  0
 13 12  1  0  0  0  0
 15 12  1  0  0  0  0
M  RAD  1   1   2
M  END
