Coordinates from ORCA-job tert-Butyl-N2+-scan-d09-169-n800
 OpenBabel09191813453D

 15 13  0  0  0  0  0  0  0  0999 V2000
   -0.2998    0.4261    0.0560 C   0  0  0  0  0  0  0  0  0  0  0  0
    0.7448   -2.5381    0.0561 N   0  0  0  0  0  0  0  0  0  0  0  0
    1.1128   -3.5787    0.0562 N   0  0  0  0  0  0  0  0  0  0  0  0
    0.3728    0.7186    1.3267 C   0  0  0  0  0  0  0  0  0  0  0  0
    1.4654    0.6598    1.2624 H   0  0  0  0  0  0  0  0  0  0  0  0
    0.1326    1.7856    1.5322 H   0  0  0  0  0  0  0  0  0  0  0  0
   -0.0285    0.1456    2.1692 H   0  0  0  0  0  0  0  0  0  0  0  0
   -1.6972   -0.0212    0.0559 C   0  0  0  0  0  0  0  0  0  0  0  0
   -2.2938    0.9182    0.0558 H   0  0  0  0  0  0  0  0  0  0  0  0
   -1.9766   -0.5624   -0.8547 H   0  0  0  0  0  0  0  0  0  0  0  0
   -1.9768   -0.5624    0.9664 H   0  0  0  0  0  0  0  0  0  0  0  0
    0.3731    0.7185   -1.2145 C   0  0  0  0  0  0  0  0  0  0  0  0
    0.1329    1.7856   -1.4201 H   0  0  0  0  0  0  0  0  0  0  0  0
    1.4656    0.6598   -1.1501 H   0  0  0  0  0  0  0  0  0  0  0  0
   -0.0281    0.1456   -2.0571 H   0  0  0  0  0  0  0  0  0  0  0  0
  1  4  1  0  0  0  0
  2  3  3  0  0  0  0
  4  6  1  0  0  0  0
  4  7  1  0  0  0  0
  5  4  1  0  0  0  0
  8  1  1  0  0  0  0
  8 11  1  0  0  0  0
  9  8  1  0  0  0  0
 10  8  1  0  0  0  0
 12 14  1  0  0  0  0
 12  1  1  0  0  0  0
 13 12  1  0  0  0  0
 15 12  1  0  0  0  0
M  RAD  1   1   2
M  END
