Coordinates from ORCA-job tert-Butyl-N2+-scan-d09-169-n800
 OpenBabel09191813453D

 15 13  0  0  0  0  0  0  0  0999 V2000
   -0.1116    0.8358    0.2897 C   0  0  0  0  0  0  0  0  0  0  0  0
   -0.4045   -4.5980   -1.2148 N   0  0  0  0  0  0  0  0  0  0  0  0
   -0.4014   -5.6463   -1.5614 N   0  0  0  0  0  0  0  0  0  0  0  0
    0.0847    1.8919    1.2857 C   0  0  0  0  0  0  0  0  0  0  0  0
    0.8802    2.5991    1.0294 H   0  0  0  0  0  0  0  0  0  0  0  0
   -0.8761    2.4552    1.2942 H   0  0  0  0  0  0  0  0  0  0  0  0
    0.1834    1.4905    2.3036 H   0  0  0  0  0  0  0  0  0  0  0  0
   -0.9491   -0.3255    0.5980 C   0  0  0  0  0  0  0  0  0  0  0  0
   -1.9177   -0.1193    0.0905 H   0  0  0  0  0  0  0  0  0  0  0  0
   -0.5820   -1.2383    0.1046 H   0  0  0  0  0  0  0  0  0  0  0  0
   -1.1439   -0.4731    1.6640 H   0  0  0  0  0  0  0  0  0  0  0  0
    0.5078    0.9500   -1.0302 C   0  0  0  0  0  0  0  0  0  0  0  0
    0.6277    1.9913   -1.3587 H   0  0  0  0  0  0  0  0  0  0  0  0
    1.5466    0.5808   -0.8621 H   0  0  0  0  0  0  0  0  0  0  0  0
    0.0551    0.3067   -1.7921 H   0  0  0  0  0  0  0  0  0  0  0  0
  1  8  1  0  0  0  0
  1  4  1  0  0  0  0
  3  2  3  0  0  0  0
  4  6  1  0  0  0  0
  4  7  1  0  0  0  0
  5  4  1  0  0  0  0
  8 11  1  0  0  0  0
  9  8  1  0  0  0  0
 10  8  1  0  0  0  0
 12 14  1  0  0  0  0
 12  1  1  0  0  0  0
 13 12  1  0  0  0  0
 15 12  1  0  0  0  0
M  RAD  1   1   2
M  END
