Coordinates from ORCA-job tert-Butyl-N2+-scan-d09-169-n800
 OpenBabel09191813453D

 15 13  0  0  0  0  0  0  0  0999 V2000
   -0.1232    0.7556    0.2428 C   0  0  0  0  0  0  0  0  0  0  0  0
   -0.3714   -4.0566   -0.9542 N   0  0  0  0  0  0  0  0  0  0  0  0
   -0.3425   -5.1167   -1.2608 N   0  0  0  0  0  0  0  0  0  0  0  0
    0.1075    1.7512    1.2924 C   0  0  0  0  0  0  0  0  0  0  0  0
    0.8846    2.4825    1.0505 H   0  0  0  0  0  0  0  0  0  0  0  0
   -0.8589    2.2911    1.4033 H   0  0  0  0  0  0  0  0  0  0  0  0
    0.2662    1.2754    2.2714 H   0  0  0  0  0  0  0  0  0  0  0  0
   -0.9875   -0.3985    0.4975 C   0  0  0  0  0  0  0  0  0  0  0  0
   -1.9325   -0.1791   -0.0460 H   0  0  0  0  0  0  0  0  0  0  0  0
   -0.6086   -1.3068    0.0011 H   0  0  0  0  0  0  0  0  0  0  0  0
   -1.2194   -0.5659    1.5528 H   0  0  0  0  0  0  0  0  0  0  0  0
    0.4956    0.9213   -1.0722 C   0  0  0  0  0  0  0  0  0  0  0  0
    0.6018    1.9769   -1.3589 H   0  0  0  0  0  0  0  0  0  0  0  0
    1.5405    0.5644   -0.9203 H   0  0  0  0  0  0  0  0  0  0  0  0
    0.0472    0.3060   -1.8588 H   0  0  0  0  0  0  0  0  0  0  0  0
  1  8  1  0  0  0  0
  1  4  1  0  0  0  0
  3  2  3  0  0  0  0
  4  6  1  0  0  0  0
  4  7  1  0  0  0  0
  5  4  1  0  0  0  0
  8 11  1  0  0  0  0
  9  8  1  0  0  0  0
 10  8  1  0  0  0  0
 12 14  1  0  0  0  0
 12  1  1  0  0  0  0
 13 12  1  0  0  0  0
 15 12  1  0  0  0  0
M  RAD  1   1   2
M  END
