Coordinates from ORCA-job tert-Butyl-N2+-scan-d09-169-n800
 OpenBabel09191813453D

 15 13  0  0  0  0  0  0  0  0999 V2000
   -0.2972    0.4169    0.0560 C   0  0  0  0  0  0  0  0  0  0  0  0
    0.7295   -2.4898    0.0561 N   0  0  0  0  0  0  0  0  0  0  0  0
    1.0992   -3.5298    0.0562 N   0  0  0  0  0  0  0  0  0  0  0  0
    0.3752    0.7107    1.3267 C   0  0  0  0  0  0  0  0  0  0  0  0
    1.4677    0.6506    1.2630 H   0  0  0  0  0  0  0  0  0  0  0  0
    0.1359    1.7782    1.5305 H   0  0  0  0  0  0  0  0  0  0  0  0
   -0.0267    0.1391    2.1697 H   0  0  0  0  0  0  0  0  0  0  0  0
   -1.6955   -0.0280    0.0559 C   0  0  0  0  0  0  0  0  0  0  0  0
   -2.2903    0.9124    0.0558 H   0  0  0  0  0  0  0  0  0  0  0  0
   -1.9756   -0.5690   -0.8545 H   0  0  0  0  0  0  0  0  0  0  0  0
   -1.9758   -0.5690    0.9663 H   0  0  0  0  0  0  0  0  0  0  0  0
    0.3754    0.7107   -1.2145 C   0  0  0  0  0  0  0  0  0  0  0  0
    0.1361    1.7782   -1.4184 H   0  0  0  0  0  0  0  0  0  0  0  0
    1.4679    0.6506   -1.1506 H   0  0  0  0  0  0  0  0  0  0  0  0
   -0.0263    0.1390   -2.0577 H   0  0  0  0  0  0  0  0  0  0  0  0
  1  4  1  0  0  0  0
  2  3  3  0  0  0  0
  4  6  1  0  0  0  0
  4  7  1  0  0  0  0
  5  4  1  0  0  0  0
  8  1  1  0  0  0  0
  8 11  1  0  0  0  0
  9  8  1  0  0  0  0
 10  8  1  0  0  0  0
 12 14  1  0  0  0  0
 12  1  1  0  0  0  0
 13 12  1  0  0  0  0
 15 12  1  0  0  0  0
M  RAD  1   1   2
M  END
