Coordinates from ORCA-job tert-Butyl-N2+-scan-d09-169-n800
 OpenBabel09191813453D

 15 13  0  0  0  0  0  0  0  0999 V2000
   -0.3064    0.4557    0.0560 C   0  0  0  0  0  0  0  0  0  0  0  0
    0.7889   -2.7028    0.0561 N   0  0  0  0  0  0  0  0  0  0  0  0
    1.1496   -3.7460    0.0562 N   0  0  0  0  0  0  0  0  0  0  0  0
    0.3660    0.7473    1.3267 C   0  0  0  0  0  0  0  0  0  0  0  0
    1.4590    0.6972    1.2610 H   0  0  0  0  0  0  0  0  0  0  0  0
    0.1178    1.8116    1.5379 H   0  0  0  0  0  0  0  0  0  0  0  0
   -0.0308    0.1682    2.1674 H   0  0  0  0  0  0  0  0  0  0  0  0
   -1.7006   -0.0010    0.0559 C   0  0  0  0  0  0  0  0  0  0  0  0
   -2.3040    0.9341    0.0555 H   0  0  0  0  0  0  0  0  0  0  0  0
   -1.9765   -0.5442   -0.8547 H   0  0  0  0  0  0  0  0  0  0  0  0
   -1.9768   -0.5436    0.9668 H   0  0  0  0  0  0  0  0  0  0  0  0
    0.3662    0.7473   -1.2145 C   0  0  0  0  0  0  0  0  0  0  0  0
    0.1185    1.8118   -1.4255 H   0  0  0  0  0  0  0  0  0  0  0  0
    1.4591    0.6968   -1.1488 H   0  0  0  0  0  0  0  0  0  0  0  0
   -0.0308    0.1685   -2.0554 H   0  0  0  0  0  0  0  0  0  0  0  0
  1  4  1  0  0  0  0
  2  3  3  0  0  0  0
  4  6  1  0  0  0  0
  4  7  1  0  0  0  0
  5  4  1  0  0  0  0
  8  1  1  0  0  0  0
  8 11  1  0  0  0  0
  9  8  1  0  0  0  0
 10  8  1  0  0  0  0
 12 14  1  0  0  0  0
 12  1  1  0  0  0  0
 13 12  1  0  0  0  0
 15 12  1  0  0  0  0
M  RAD  1   1   2
M  END
