Coordinates from ORCA-job tert-Butyl-N2+-scan-d09-169-n800
 OpenBabel09191813453D

 15 14  0  0  0  0  0  0  0  0999 V2000
   -0.1363   -0.0405    0.0560 C   0  0  0  0  0  0  0  0  0  0  0  0
    0.3857   -1.5114    0.0561 N   0  0  0  0  0  0  0  0  0  0  0  0
    0.7554   -2.5509    0.0561 N   0  0  0  0  0  0  0  0  0  0  0  0
    0.4388    0.5592    1.3407 C   0  0  0  0  0  0  0  0  0  0  0  0
    1.5349    0.5586    1.3407 H   0  0  0  0  0  0  0  0  0  0  0  0
    0.0958    1.6019    1.3701 H   0  0  0  0  0  0  0  0  0  0  0  0
    0.0605    0.0515    2.2349 H   0  0  0  0  0  0  0  0  0  0  0  0
   -1.6589   -0.1834    0.0559 C   0  0  0  0  0  0  0  0  0  0  0  0
   -2.0639    0.8373    0.0558 H   0  0  0  0  0  0  0  0  0  0  0  0
   -2.0217   -0.6962   -0.8418 H   0  0  0  0  0  0  0  0  0  0  0  0
   -2.0219   -0.6961    0.9536 H   0  0  0  0  0  0  0  0  0  0  0  0
    0.4390    0.5591   -1.2286 C   0  0  0  0  0  0  0  0  0  0  0  0
    0.0960    1.6018   -1.2581 H   0  0  0  0  0  0  0  0  0  0  0  0
    1.5351    0.5585   -1.2283 H   0  0  0  0  0  0  0  0  0  0  0  0
    0.0609    0.0514   -2.1228 H   0  0  0  0  0  0  0  0  0  0  0  0
  1  2  1  0  0  0  0
  1  4  1  0  0  0  0
  3  2  1  0  0  0  0
  4  6  1  0  0  0  0
  4  7  1  0  0  0  0
  5  4  1  0  0  0  0
  8  1  1  0  0  0  0
  8 11  1  0  0  0  0
  9  8  1  0  0  0  0
 10  8  1  0  0  0  0
 12 14  1  0  0  0  0
 12  1  1  0  0  0  0
 13 12  1  0  0  0  0
 15 12  1  0  0  0  0
M  RAD  2   2   2   3   3
M  END
