Coordinates from ORCA-job tert-Butyl-N2+-scan-d09-169-n800
 OpenBabel09191813453D

 15 13  0  0  0  0  0  0  0  0999 V2000
   -0.1256    0.7505    0.2415 C   0  0  0  0  0  0  0  0  0  0  0  0
   -0.3605   -4.0231   -0.9472 N   0  0  0  0  0  0  0  0  0  0  0  0
   -0.3271   -5.0831   -1.2537 N   0  0  0  0  0  0  0  0  0  0  0  0
    0.1116    1.7442    1.2915 C   0  0  0  0  0  0  0  0  0  0  0  0
    0.8905    2.4731    1.0485 H   0  0  0  0  0  0  0  0  0  0  0  0
   -0.8527    2.2867    1.4073 H   0  0  0  0  0  0  0  0  0  0  0  0
    0.2722    1.2660    2.2692 H   0  0  0  0  0  0  0  0  0  0  0  0
   -0.9960   -0.3988    0.4965 C   0  0  0  0  0  0  0  0  0  0  0  0
   -1.9382   -0.1774   -0.0509 H   0  0  0  0  0  0  0  0  0  0  0  0
   -0.6192   -1.3100    0.0035 H   0  0  0  0  0  0  0  0  0  0  0  0
   -1.2314   -0.5628    1.5514 H   0  0  0  0  0  0  0  0  0  0  0  0
    0.4933    0.9134   -1.0739 C   0  0  0  0  0  0  0  0  0  0  0  0
    0.6018    1.9686   -1.3612 H   0  0  0  0  0  0  0  0  0  0  0  0
    1.5376    0.5547   -0.9223 H   0  0  0  0  0  0  0  0  0  0  0  0
    0.0429    0.2988   -1.8599 H   0  0  0  0  0  0  0  0  0  0  0  0
  1  8  1  0  0  0  0
  1  4  1  0  0  0  0
  3  2  3  0  0  0  0
  4  6  1  0  0  0  0
  4  7  1  0  0  0  0
  5  4  1  0  0  0  0
  8 11  1  0  0  0  0
  9  8  1  0  0  0  0
 10  8  1  0  0  0  0
 12 14  1  0  0  0  0
 12  1  1  0  0  0  0
 13 12  1  0  0  0  0
 15 12  1  0  0  0  0
M  RAD  1   1   2
M  END
