Coordinates from ORCA-job tert-Butyl-N2+-scan-d09-169-n800
 OpenBabel09191813453D

 15 13  0  0  0  0  0  0  0  0999 V2000
   -0.2024    0.6804    0.1465 C   0  0  0  0  0  0  0  0  0  0  0  0
   -0.0774   -3.4806   -0.4409 N   0  0  0  0  0  0  0  0  0  0  0  0
    0.1306   -4.5480   -0.6295 N   0  0  0  0  0  0  0  0  0  0  0  0
    0.3318    1.3318    1.3455 C   0  0  0  0  0  0  0  0  0  0  0  0
    1.1582    2.0219    1.1539 H   0  0  0  0  0  0  0  0  0  0  0  0
   -0.4835    1.8124    1.9122 H   0  0  0  0  0  0  0  0  0  0  0  0
    0.6758    0.5200    2.0201 H   0  0  0  0  0  0  0  0  0  0  0  0
   -1.3628   -0.2022    0.2439 C   0  0  0  0  0  0  0  0  0  0  0  0
   -2.0444   -0.0509   -0.6088 H   0  0  0  0  0  0  0  0  0  0  0  0
   -0.9649   -1.2291    0.0807 H   0  0  0  0  0  0  0  0  0  0  0  0
   -1.8843   -0.1633    1.2043 H   0  0  0  0  0  0  0  0  0  0  0  0
    0.4369    0.9017   -1.1510 C   0  0  0  0  0  0  0  0  0  0  0  0
    0.1510    1.9397   -1.4321 H   0  0  0  0  0  0  0  0  0  0  0  0
    1.5335    0.9418   -1.0616 H   0  0  0  0  0  0  0  0  0  0  0  0
    0.1013    0.2252   -1.9426 H   0  0  0  0  0  0  0  0  0  0  0  0
  1  8  1  0  0  0  0
  1  4  1  0  0  0  0
  3  2  3  0  0  0  0
  4  6  1  0  0  0  0
  4  7  1  0  0  0  0
  5  4  1  0  0  0  0
  8 11  1  0  0  0  0
  9  8  1  0  0  0  0
 10  8  1  0  0  0  0
 12 14  1  0  0  0  0
 12  1  1  0  0  0  0
 13 12  1  0  0  0  0
 15 12  1  0  0  0  0
M  RAD  1   1   2
M  END
