Coordinates from ORCA-job tert-Butyl-N2+-scan-d09-169-n800
 OpenBabel09191813453D

 15 13  0  0  0  0  0  0  0  0999 V2000
   -0.3540    0.5664    0.0560 C   0  0  0  0  0  0  0  0  0  0  0  0
    0.8607   -2.8248    0.1482 N   0  0  0  0  0  0  0  0  0  0  0  0
    1.1938   -3.8751    0.0811 N   0  0  0  0  0  0  0  0  0  0  0  0
    0.3559    0.8136    1.3083 C   0  0  0  0  0  0  0  0  0  0  0  0
    1.2846    1.3830    1.1968 H   0  0  0  0  0  0  0  0  0  0  0  0
   -0.2973    1.2038    2.1001 H   0  0  0  0  0  0  0  0  0  0  0  0
    0.6347   -0.2134    1.6419 H   0  0  0  0  0  0  0  0  0  0  0  0
   -1.7624    0.1651    0.0721 C   0  0  0  0  0  0  0  0  0  0  0  0
   -2.3281    0.9755   -0.4341 H   0  0  0  0  0  0  0  0  0  0  0  0
   -1.9151   -0.7092   -0.5815 H   0  0  0  0  0  0  0  0  0  0  0  0
   -2.1736    0.0062    1.0726 H   0  0  0  0  0  0  0  0  0  0  0  0
    0.3484    0.7233   -1.2205 C   0  0  0  0  0  0  0  0  0  0  0  0
    0.4289    1.8210   -1.3758 H   0  0  0  0  0  0  0  0  0  0  0  0
    1.3919    0.3826   -1.1477 H   0  0  0  0  0  0  0  0  0  0  0  0
   -0.1695    0.2826   -2.0770 H   0  0  0  0  0  0  0  0  0  0  0  0
  1  8  1  0  0  0  0
  1  4  1  0  0  0  0
  3  2  3  0  0  0  0
  4  7  1  0  0  0  0
  4  6  1  0  0  0  0
  5  4  1  0  0  0  0
  8 11  1  0  0  0  0
  9  8  1  0  0  0  0
 10  8  1  0  0  0  0
 12 14  1  0  0  0  0
 12  1  1  0  0  0  0
 13 12  1  0  0  0  0
 15 12  1  0  0  0  0
M  RAD  1   1   2
M  END
