Coordinates from ORCA-job tert-Butyl-N2+-scan-d09-169-n800
 OpenBabel09191813453D

 15 13  0  0  0  0  0  0  0  0999 V2000
   -0.3176    0.6285    0.0631 C   0  0  0  0  0  0  0  0  0  0  0  0
    0.5880   -3.0657    0.0537 N   0  0  0  0  0  0  0  0  0  0  0  0
    0.8984   -4.1208   -0.0412 N   0  0  0  0  0  0  0  0  0  0  0  0
    0.3956    0.7565    1.3359 C   0  0  0  0  0  0  0  0  0  0  0  0
    1.1158    1.5887    1.3171 H   0  0  0  0  0  0  0  0  0  0  0  0
   -0.2519    0.7879    2.2165 H   0  0  0  0  0  0  0  0  0  0  0  0
    1.0327   -0.1536    1.3930 H   0  0  0  0  0  0  0  0  0  0  0  0
   -1.7213    0.2159    0.0453 C   0  0  0  0  0  0  0  0  0  0  0  0
   -2.2032    0.3011   -0.9337 H   0  0  0  0  0  0  0  0  0  0  0  0
   -1.6974   -0.8613    0.3248 H   0  0  0  0  0  0  0  0  0  0  0  0
   -2.3001    0.6982    0.8460 H   0  0  0  0  0  0  0  0  0  0  0  0
    0.3881    0.8821   -1.1923 C   0  0  0  0  0  0  0  0  0  0  0  0
    0.0584    1.9072   -1.4779 H   0  0  0  0  0  0  0  0  0  0  0  0
    1.4792    0.8978   -1.1002 H   0  0  0  0  0  0  0  0  0  0  0  0
    0.0346    0.2382   -2.0097 H   0  0  0  0  0  0  0  0  0  0  0  0
  1  4  1  0  0  0  0
  3  2  3  0  0  0  0
  4  7  1  0  0  0  0
  4  6  1  0  0  0  0
  5  4  1  0  0  0  0
  8  1  1  0  0  0  0
  8 10  1  0  0  0  0
  8 11  1  0  0  0  0
  9  8  1  0  0  0  0
 12 14  1  0  0  0  0
 12  1  1  0  0  0  0
 13 12  1  0  0  0  0
 15 12  1  0  0  0  0
M  RAD  1   1   2
M  END
