Coordinates from ORCA-job tert-Butyl-N2+-scan-d09-169-n800
 OpenBabel09191813453D

 15 14  0  0  0  0  0  0  0  0999 V2000
   -0.0871   -0.1794    0.0560 C   0  0  0  0  0  0  0  0  0  0  0  0
    0.3283   -1.3482    0.0561 N   0  0  0  0  0  0  0  0  0  0  0  0
    0.7016   -2.3970    0.0562 N   0  0  0  0  0  0  0  0  0  0  0  0
    0.4493    0.5422    1.3485 C   0  0  0  0  0  0  0  0  0  0  0  0
    1.5452    0.5521    1.3551 H   0  0  0  0  0  0  0  0  0  0  0  0
    0.0721    1.5689    1.3143 H   0  0  0  0  0  0  0  0  0  0  0  0
    0.0720    0.0432    2.2478 H   0  0  0  0  0  0  0  0  0  0  0  0
   -1.6605   -0.2042    0.0559 C   0  0  0  0  0  0  0  0  0  0  0  0
   -1.9934    0.8381    0.0558 H   0  0  0  0  0  0  0  0  0  0  0  0
   -2.0338   -0.7106   -0.8410 H   0  0  0  0  0  0  0  0  0  0  0  0
   -2.0340   -0.7105    0.9527 H   0  0  0  0  0  0  0  0  0  0  0  0
    0.4496    0.5422   -1.2364 C   0  0  0  0  0  0  0  0  0  0  0  0
    0.0723    1.5688   -1.2023 H   0  0  0  0  0  0  0  0  0  0  0  0
    1.5454    0.5520   -1.2428 H   0  0  0  0  0  0  0  0  0  0  0  0
    0.0724    0.0432   -2.1357 H   0  0  0  0  0  0  0  0  0  0  0  0
  1  2  1  0  0  0  0
  1  4  1  0  0  0  0
  2  3  1  0  0  0  0
  4  5  1  0  0  0  0
  4  7  1  0  0  0  0
  6  4  1  0  0  0  0
  8  1  1  0  0  0  0
  8 11  1  0  0  0  0
  9  8  1  0  0  0  0
 10  8  1  0  0  0  0
 12 13  1  0  0  0  0
 12  1  1  0  0  0  0
 14 12  1  0  0  0  0
 15 12  1  0  0  0  0
M  RAD  2   2   2   3   3
M  END
