Coordinates from ORCA-job tert-Butyl-N2+-scan-d09-169-n800
 OpenBabel09191813453D

 15 13  0  0  0  0  0  0  0  0999 V2000
   -0.2687    0.3299    0.0560 C   0  0  0  0  0  0  0  0  0  0  0  0
    0.6086   -2.1411    0.0561 N   0  0  0  0  0  0  0  0  0  0  0  0
    0.9870   -3.1779    0.0561 N   0  0  0  0  0  0  0  0  0  0  0  0
    0.3954    0.6526    1.3270 C   0  0  0  0  0  0  0  0  0  0  0  0
    1.4881    0.5989    1.2714 H   0  0  0  0  0  0  0  0  0  0  0  0
    0.1439    1.7212    1.5038 H   0  0  0  0  0  0  0  0  0  0  0  0
   -0.0061    0.0949    2.1791 H   0  0  0  0  0  0  0  0  0  0  0  0
   -1.6792   -0.0832    0.0559 C   0  0  0  0  0  0  0  0  0  0  0  0
   -2.2459    0.8732    0.0558 H   0  0  0  0  0  0  0  0  0  0  0  0
   -1.9731   -0.6177   -0.8535 H   0  0  0  0  0  0  0  0  0  0  0  0
   -1.9733   -0.6176    0.9653 H   0  0  0  0  0  0  0  0  0  0  0  0
    0.3956    0.6526   -1.2149 C   0  0  0  0  0  0  0  0  0  0  0  0
    0.1442    1.7211   -1.3917 H   0  0  0  0  0  0  0  0  0  0  0  0
    1.4884    0.5989   -1.1590 H   0  0  0  0  0  0  0  0  0  0  0  0
   -0.0057    0.0949   -2.0670 H   0  0  0  0  0  0  0  0  0  0  0  0
  1  4  1  0  0  0  0
  3  2  3  0  0  0  0
  4  6  1  0  0  0  0
  4  7  1  0  0  0  0
  5  4  1  0  0  0  0
  8  1  1  0  0  0  0
  8 11  1  0  0  0  0
  9  8  1  0  0  0  0
 10  8  1  0  0  0  0
 12 14  1  0  0  0  0
 12  1  1  0  0  0  0
 13 12  1  0  0  0  0
 15 12  1  0  0  0  0
M  RAD  1   1   2
M  END
