Coordinates from ORCA-job tert-Butyl-N2+-scan-d09-169-n800
 OpenBabel09191813453D

 15 13  0  0  0  0  0  0  0  0999 V2000
   -0.2980    0.4198    0.0560 C   0  0  0  0  0  0  0  0  0  0  0  0
    0.7347   -2.5061    0.0561 N   0  0  0  0  0  0  0  0  0  0  0  0
    1.1039   -3.5463    0.0562 N   0  0  0  0  0  0  0  0  0  0  0  0
    0.3744    0.7132    1.3267 C   0  0  0  0  0  0  0  0  0  0  0  0
    1.4669    0.6538    1.2628 H   0  0  0  0  0  0  0  0  0  0  0  0
    0.1346    1.7806    1.5308 H   0  0  0  0  0  0  0  0  0  0  0  0
   -0.0274    0.1413    2.1696 H   0  0  0  0  0  0  0  0  0  0  0  0
   -1.6960   -0.0257    0.0559 C   0  0  0  0  0  0  0  0  0  0  0  0
   -2.2912    0.9144    0.0558 H   0  0  0  0  0  0  0  0  0  0  0  0
   -1.9761   -0.5667   -0.8546 H   0  0  0  0  0  0  0  0  0  0  0  0
   -1.9763   -0.5666    0.9664 H   0  0  0  0  0  0  0  0  0  0  0  0
    0.3746    0.7132   -1.2145 C   0  0  0  0  0  0  0  0  0  0  0  0
    0.1349    1.7806   -1.4187 H   0  0  0  0  0  0  0  0  0  0  0  0
    1.4671    0.6538   -1.1505 H   0  0  0  0  0  0  0  0  0  0  0  0
   -0.0270    0.1413   -2.0575 H   0  0  0  0  0  0  0  0  0  0  0  0
  1  4  1  0  0  0  0
  2  3  3  0  0  0  0
  4  6  1  0  0  0  0
  4  7  1  0  0  0  0
  5  4  1  0  0  0  0
  8  1  1  0  0  0  0
  8 11  1  0  0  0  0
  9  8  1  0  0  0  0
 10  8  1  0  0  0  0
 12 14  1  0  0  0  0
 12  1  1  0  0  0  0
 13 12  1  0  0  0  0
 15 12  1  0  0  0  0
M  RAD  1   1   2
M  END
